mol_0


 47 50  0  0  0  0  0  0  0  0999 V2000
   12.2253   32.5530   39.5709 C   0  0  0  0  0  0  0  0  0  0  0  0
   11.8093   32.2368   38.3903 N   0  0  0  0  0  0  0  0  0  0  0  0
   10.4057   32.3246   37.8475 C   0  0  0  0  0  0  0  0  0  0  0  0
   10.4307   31.4234   36.5965 C   0  0  0  0  0  0  0  0  0  0  0  0
   11.8889   31.4592   36.2272 C   0  0  0  0  0  0  0  0  0  0  0  0
   12.5040   31.1233   35.0160 C   0  0  0  0  0  0  0  0  0  0  0  0
   13.8543   31.4524   34.8470 C   0  0  0  0  0  0  0  0  0  0  0  0
   14.4882   32.1748   35.8585 C   0  0  0  0  0  0  0  0  0  0  0  0
   13.9479   32.3468   37.1188 C   0  0  0  0  0  0  0  0  0  0  0  0
   12.6353   31.9713   37.2903 C   0  0  0  0  0  0  0  0  0  0  0  0
   15.6036   32.9128   35.5980 O   0  0  0  0  0  0  0  0  0  0  0  0
   15.4281   33.3359   34.7340 H   0  0  0  0  0  0  0  0  0  0  0  0
   12.5775   30.3525   41.5868 C   0  0  0  0  0  0  0  0  0  0  0  0
   12.9286   29.1421   42.4796 C   0  0  0  0  0  0  0  0  0  0  0  0
   14.3040   29.1876   43.0285 N   0  0  0  0  0  0  0  0  0  0  0  0
   15.2476   30.1248   42.6320 C   0  0  0  0  0  0  0  0  0  0  0  0
   14.9979   31.0926   41.7394 C   0  0  0  0  0  0  0  0  0  0  0  0
   13.6933   31.2698   41.1252 C   0  0  0  0  0  0  0  0  0  0  0  0
   13.5412   32.2240   40.1867 C   0  0  0  0  0  0  0  0  0  0  0  0
   14.6870   28.2364   43.1222 H   0  0  0  0  0  0  0  0  0  0  0  0
   16.6436   30.0790   43.2009 C   0  0  0  0  0  0  0  0  0  0  0  0
   17.6709   30.0045   42.5426 O   0  0  0  0  0  0  0  0  0  0  0  0
   16.6164   30.1679   44.5477 O   0  0  0  0  0  0  0  0  0  0  0  0
   15.7110   30.3805   44.8502 H   0  0  0  0  0  0  0  0  0  0  0  0
   12.7210   27.7762   41.7945 C   0  0  0  0  0  0  0  0  0  0  0  0
   13.2593   27.5007   40.7255 O   0  0  0  0  0  0  0  0  0  0  0  0
   12.0157   26.8557   42.4815 O   0  0  0  0  0  0  0  0  0  0  0  0
   11.6110   27.1113   43.3322 H   0  0  0  0  0  0  0  0  0  0  0  0
    9.3332   31.9174   38.8526 C   0  0  0  0  0  0  0  0  0  0  0  0
    9.2064   30.6795   39.0657 O   0  0  0  0  0  0  0  0  0  0  0  0
    8.7481   32.8903   39.3948 O   0  0  0  0  0  0  0  0  0  0  0  0
   14.4445   31.3529   33.6253 O   0  0  0  0  0  0  0  0  0  0  0  0
   15.3644   30.2548   33.3413 C   0  0  0  0  0  0  0  0  0  0  0  0
   15.7245   30.2350   31.8318 C   0  0  0  0  0  0  0  0  0  0  0  0
   16.9703   31.0738   31.5268 C   0  0  0  0  0  0  0  0  0  0  0  0
   18.1269   30.7003   32.4561 C   0  0  0  0  0  0  0  0  0  0  0  0
   17.7229   30.6594   33.9401 C   0  0  0  0  0  0  0  0  0  0  0  0
   16.4789   29.9930   34.2002 O   0  0  0  0  0  0  0  0  0  0  0  0
   18.6507   29.4398   31.9997 O   0  0  0  0  0  0  0  0  0  0  0  0
   17.3832   30.8923   30.1623 O   0  0  0  0  0  0  0  0  0  0  0  0
   14.6109   30.6401   31.0225 O   0  0  0  0  0  0  0  0  0  0  0  0
   18.1006   28.7181   32.3558 H   0  0  0  0  0  0  0  0  0  0  0  0
   18.0744   30.1993   30.1713 H   0  0  0  0  0  0  0  0  0  0  0  0
   14.3232   31.5203   31.3174 H   0  0  0  0  0  0  0  0  0  0  0  0
   18.8287   29.9842   34.7851 C   0  0  0  0  0  0  0  0  0  0  0  0
   20.1046   30.6004   34.6138 O   0  0  0  0  0  0  0  0  0  0  0  0
   20.1332   31.0239   33.7422 H   0  0  0  0  0  0  0  0  0  0  0  0
 13 14  1  0  0  0
 14 15  1  0  0  0
 15 16  1  0  0  0
 16 17  2  0  0  0
 17 18  1  0  0  0
 13 18  1  0  0  0
 18 19  2  0  0  0
 19  1  1  0  0  0
  1  2  2  0  0  0
  2  3  1  0  0  0
  3  4  1  0  0  0
  4  5  1  0  0  0
  5  6  2  0  0  0
  6  7  1  0  0  0
  7  8  2  0  0  0
  8  9  1  0  0  0
  9 10  2  0  0  0
  5 10  1  0  0  0
  2 10  1  0  0  0
  8 11  1  0  0  0
  7 32  1  0  0  0
 32 33  1  0  0  0
 33 34  1  0  0  0
 34 35  1  0  0  0
 35 36  1  0  0  0
 36 37  1  0  0  0
 37 38  1  0  0  0
 33 38  1  0  0  0
 37 45  1  0  0  0
 45 46  1  0  0  0
 36 39  1  0  0  0
 35 40  1  0  0  0
 34 41  1  0  0  0
  3 29  1  0  0  0
 29 30  2  0  0  0
 29 31  1  0  0  0
 16 21  1  0  0  0
 21 22  2  0  0  0
 21 23  1  0  0  0
 14 25  1  0  0  0
 25 26  2  0  0  0
 25 27  1  0  0  0
 15 20  1  0  0  0
 11 12  1  0  0  0
 46 47  1  0  0  0
 39 42  1  0  0  0
 40 43  1  0  0  0
 41 44  1  0  0  0
 23 24  1  0  0  0
 27 28  1  0  0  0
M  CHG 1   2   1
M  CHG 1  31  -1
M  END
> <minimizedAffinity>
-10.57260

$$$$
mol_1


 53 59  0  0  0  0  0  0  0  0999 V2000
   13.2929   29.3308   36.4024 C   0  0  0  0  0  0  0  0  0  0  0  0
   12.2483   30.2347   36.8904 N   0  0  0  0  0  0  0  0  0  0  0  0
   12.6217   31.6212   36.5516 C   0  0  0  0  0  0  0  0  0  0  0  0
   12.1558   32.6696   37.5580 C   0  0  0  0  0  0  0  0  0  0  0  0
   12.7477   32.2984   38.8988 C   0  0  0  0  0  0  0  0  0  0  0  0
   12.5776   30.9458   39.3017 C   0  0  0  0  0  0  0  0  0  0  0  0
   11.8344   30.0407   38.3214 C   0  0  0  0  0  0  0  0  0  0  0  0
   11.7618   28.5589   38.7397 C   0  0  0  0  0  0  0  0  0  0  0  0
   11.8438   28.2669   40.2195 C   0  0  0  0  0  0  0  0  0  0  0  0
   11.4126   26.9932   40.6794 C   0  0  0  0  0  0  0  0  0  0  0  0
   11.9161   26.5041   41.8918 C   0  0  0  0  0  0  0  0  0  0  0  0
   12.4970   27.3802   42.7911 C   0  0  0  0  0  0  0  0  0  0  0  0
   12.7672   28.6908   42.3784 C   0  0  0  0  0  0  0  0  0  0  0  0
   12.5580   29.1482   41.0621 C   0  0  0  0  0  0  0  0  0  0  0  0
   12.9976   30.5055   40.5778 C   0  0  0  0  0  0  0  0  0  0  0  0
   13.7770   31.4329   41.3403 C   0  0  0  0  0  0  0  0  0  0  0  0
   13.9806   32.7805   40.9267 C   0  0  0  0  0  0  0  0  0  0  0  0
   13.4175   33.2059   39.7213 C   0  0  0  0  0  0  0  0  0  0  0  0
   13.5343   34.5059   39.3147 O   0  0  0  0  0  0  0  0  0  0  0  0
   11.9086   25.1627   42.1751 O   0  0  0  0  0  0  0  0  0  0  0  0
   13.8354   34.5013   38.3920 H   0  0  0  0  0  0  0  0  0  0  0  0
   11.7052   24.6909   41.3498 H   0  0  0  0  0  0  0  0  0  0  0  0
   14.7519   33.5494   41.7606 O   0  0  0  0  0  0  0  0  0  0  0  0
   14.1585   34.2865   42.8155 C   0  0  0  0  0  0  0  0  0  0  0  0
   14.4836   30.9194   42.4131 O   0  0  0  0  0  0  0  0  0  0  0  0
   15.8553   30.6012   42.1844 C   0  0  0  0  0  0  0  0  0  0  0  0
   12.8973   27.1080   44.0741 O   0  0  0  0  0  0  0  0  0  0  0  0
   12.4886   28.0313   45.0767 C   0  0  0  0  0  0  0  0  0  0  0  0
   10.5624   26.2867   39.8416 O   0  0  0  0  0  0  0  0  0  0  0  0
    9.2943   25.9207   40.2545 C   0  0  0  0  0  0  0  0  0  0  0  0
    8.4634   26.6658   41.0914 C   0  0  0  0  0  0  0  0  0  0  0  0
    7.4285   26.0277   41.7842 C   0  0  0  0  0  0  0  0  0  0  0  0
    7.1488   24.6738   41.5611 C   0  0  0  0  0  0  0  0  0  0  0  0
    7.7784   24.0524   40.4779 C   0  0  0  0  0  0  0  0  0  0  0  0
    8.8794   24.6521   39.8600 C   0  0  0  0  0  0  0  0  0  0  0  0
    6.2194   23.9248   42.4987 C   0  0  0  0  0  0  0  0  0  0  0  0
    4.7529   23.5739   42.0243 C   0  0  0  0  0  0  0  0  0  0  0  0
    4.0297   24.8098   41.5053 C   0  0  0  0  0  0  0  0  0  0  0  0
    3.5729   25.7864   42.4101 C   0  0  0  0  0  0  0  0  0  0  0  0
    3.0120   26.9939   41.9694 C   0  0  0  0  0  0  0  0  0  0  0  0
    2.9834   27.2656   40.5957 C   0  0  0  0  0  0  0  0  0  0  0  0
    3.3980   26.2602   39.7000 C   0  0  0  0  0  0  0  0  0  0  0  0
    3.8788   25.0206   40.1296 C   0  0  0  0  0  0  0  0  0  0  0  0
    4.2098   23.9286   39.1434 C   0  0  0  0  0  0  0  0  0  0  0  0
    4.8768   22.6773   39.7420 C   0  0  0  0  0  0  0  0  0  0  0  0
    4.5144   22.4169   41.1362 N   0  0  0  0  0  0  0  0  0  0  0  0
    5.0990   21.1747   41.6210 C   0  0  0  0  0  0  0  0  0  0  0  0
    3.3604   26.5169   38.3498 O   0  0  0  0  0  0  0  0  0  0  0  0
    3.0438   27.4394   38.2833 H   0  0  0  0  0  0  0  0  0  0  0  0
    2.5757   28.4118   39.9552 O   0  0  0  0  0  0  0  0  0  0  0  0
    3.4835   29.5017   39.8800 C   0  0  0  0  0  0  0  0  0  0  0  0
    2.5545   27.9302   42.8587 O   0  0  0  0  0  0  0  0  0  0  0  0
    3.5562   28.7313   43.4819 C   0  0  0  0  0  0  0  0  0  0  0  0
  1  2  1  0  0  0
  2  3  1  0  0  0
  3  4  1  0  0  0
  4  5  1  0  0  0
  5  6  2  0  0  0
  6  7  1  0  0  0
  2  7  1  0  0  0
  7  8  1  0  0  0
  8  9  1  0  0  0
  9 10  2  0  0  0
 10 11  1  0  0  0
 11 12  2  0  0  0
 12 13  1  0  0  0
 13 14  2  0  0  0
  9 14  1  0  0  0
 14 15  1  0  0  0
  6 15  1  0  0  0
 15 16  2  0  0  0
 16 17  1  0  0  0
 17 18  2  0  0  0
  5 18  1  0  0  0
 18 19  1  0  0  0
 17 23  1  0  0  0
 23 24  1  0  0  0
 16 25  1  0  0  0
 25 26  1  0  0  0
 12 27  1  0  0  0
 27 28  1  0  0  0
 11 20  1  0  0  0
 10 29  1  0  0  0
 29 30  1  0  0  0
 30 31  2  0  0  0
 31 32  1  0  0  0
 32 33  2  0  0  0
 33 34  1  0  0  0
 34 35  2  0  0  0
 30 35  1  0  0  0
 33 36  1  0  0  0
 36 37  1  0  0  0
 37 38  1  0  0  0
 38 39  2  0  0  0
 39 40  1  0  0  0
 40 41  2  0  0  0
 41 42  1  0  0  0
 42 43  2  0  0  0
 38 43  1  0  0  0
 43 44  1  0  0  0
 44 45  1  0  0  0
 45 46  1  0  0  0
 37 46  1  0  0  0
 46 47  1  0  0  0
 42 48  1  0  0  0
 41 50  1  0  0  0
 50 51  1  0  0  0
 40 52  1  0  0  0
 52 53  1  0  0  0
 19 21  1  0  0  0
 20 22  1  0  0  0
 48 49  1  0  0  0
M  END
> <minimizedAffinity>
-10.13529

$$$$
mol_2


 56 61  0  0  0  0  0  0  0  0999 V2000
    7.8933   28.2088   39.1826 C   0  0  0  0  0  0  0  0  0  0  0  0
    8.9303   28.8747   38.5380 C   0  0  0  0  0  0  0  0  0  0  0  0
    8.7594   30.1980   38.1217 C   0  0  0  0  0  0  0  0  0  0  0  0
    7.4824   30.7912   38.2181 C   0  0  0  0  0  0  0  0  0  0  0  0
    6.4316   30.1393   38.8686 C   0  0  0  0  0  0  0  0  0  0  0  0
    6.6634   28.8621   39.3746 C   0  0  0  0  0  0  0  0  0  0  0  0
    7.2647   32.0644   37.7479 O   0  0  0  0  0  0  0  0  0  0  0  0
    7.9398   32.2539   37.0740 H   0  0  0  0  0  0  0  0  0  0  0  0
    9.9689   31.0095   37.9761 C   0  0  0  0  0  0  0  0  0  0  0  0
   10.4079   31.6365   36.8076 C   0  0  0  0  0  0  0  0  0  0  0  0
   11.6290   32.3317   36.7926 C   0  0  0  0  0  0  0  0  0  0  0  0
   12.3632   32.4553   37.9814 C   0  0  0  0  0  0  0  0  0  0  0  0
   11.9224   31.8553   39.1700 C   0  0  0  0  0  0  0  0  0  0  0  0
   10.7761   31.0774   39.1239 C   0  0  0  0  0  0  0  0  0  0  0  0
    9.6766   31.5701   35.6490 O   0  0  0  0  0  0  0  0  0  0  0  0
    8.8529   31.0848   35.8165 H   0  0  0  0  0  0  0  0  0  0  0  0
   12.0136   32.8604   35.5867 O   0  0  0  0  0  0  0  0  0  0  0  0
   13.1006   32.2329   34.9201 C   0  0  0  0  0  0  0  0  0  0  0  0
   12.6882   32.0054   40.4530 C   0  0  0  0  0  0  0  0  0  0  0  0
   12.0260   32.7129   41.6561 C   0  0  0  0  0  0  0  0  0  0  0  0
   11.0291   32.0773   42.6451 C   0  0  0  0  0  0  0  0  0  0  0  0
   11.7189   32.2373   44.0024 C   0  0  0  0  0  0  0  0  0  0  0  0
   12.7890   33.1587   43.8523 O   0  0  0  0  0  0  0  0  0  0  0  0
   13.0671   33.3536   42.5417 C   0  0  0  0  0  0  0  0  0  0  0  0
   14.0193   34.0099   42.1482 O   0  0  0  0  0  0  0  0  0  0  0  0
   10.4817   30.6428   42.5563 C   0  0  0  0  0  0  0  0  0  0  0  0
   11.2876   29.4526   43.0017 C   0  0  0  0  0  0  0  0  0  0  0  0
   10.9539   28.8459   44.2249 C   0  0  0  0  0  0  0  0  0  0  0  0
   11.7346   27.8258   44.7955 C   0  0  0  0  0  0  0  0  0  0  0  0
   12.9053   27.4155   44.1408 C   0  0  0  0  0  0  0  0  0  0  0  0
   13.2204   28.0012   42.9071 C   0  0  0  0  0  0  0  0  0  0  0  0
   12.4014   28.9746   42.3297 C   0  0  0  0  0  0  0  0  0  0  0  0
   13.6792   26.4440   44.7154 O   0  0  0  0  0  0  0  0  0  0  0  0
   13.7220   25.1688   44.0886 C   0  0  0  0  0  0  0  0  0  0  0  0
   11.1983   27.3635   45.9696 O   0  0  0  0  0  0  0  0  0  0  0  0
    9.9129   26.7633   45.9450 C   0  0  0  0  0  0  0  0  0  0  0  0
    5.2640   30.8409   39.0183 O   0  0  0  0  0  0  0  0  0  0  0  0
    4.2739   30.2720   39.8660 C   0  0  0  0  0  0  0  0  0  0  0  0
    8.1474   26.8806   39.8342 C   0  0  0  0  0  0  0  0  0  0  0  0
    8.6899   25.9752   42.1658 C   0  0  0  0  0  0  0  0  0  0  0  0
    9.9619   25.3640   42.7154 C   0  0  0  0  0  0  0  0  0  0  0  0
   10.9547   25.4792   41.7033 O   0  0  0  0  0  0  0  0  0  0  0  0
   10.5394   26.3002   40.6973 C   0  0  0  0  0  0  0  0  0  0  0  0
   11.2503   26.5660   39.7479 O   0  0  0  0  0  0  0  0  0  0  0  0
    9.1540   26.8358   40.9825 C   0  0  0  0  0  0  0  0  0  0  0  0
    7.5519   24.9406   41.9674 C   0  0  0  0  0  0  0  0  0  0  0  0
    3.2750   25.7729   41.9436 C   0  0  0  0  0  0  0  0  0  0  0  0
    3.7673   24.4856   41.7011 C   0  0  0  0  0  0  0  0  0  0  0  0
    5.1568   24.2672   41.7169 C   0  0  0  0  0  0  0  0  0  0  0  0
    6.0806   25.3053   41.9378 C   0  0  0  0  0  0  0  0  0  0  0  0
    5.5610   26.5796   42.1529 C   0  0  0  0  0  0  0  0  0  0  0  0
    4.1827   26.8053   42.1895 C   0  0  0  0  0  0  0  0  0  0  0  0
    1.5152   26.7941   43.1234 C   0  0  0  0  0  0  0  0  0  0  0  0
    1.9246   25.9913   42.0179 O   0  0  0  0  0  0  0  0  0  0  0  0
    3.0506   23.3439   41.4521 O   0  0  0  0  0  0  0  0  0  0  0  0
    3.6189   22.1119   41.8749 C   0  0  0  0  0  0  0  0  0  0  0  0
 53 54  1  0  0  0
 54 47  1  0  0  0
 47 48  2  0  0  0
 48 49  1  0  0  0
 49 50  2  0  0  0
 50 51  1  0  0  0
 51 52  2  0  0  0
 47 52  1  0  0  0
 50 46  1  0  0  0
 46 40  1  0  0  0
 40 41  1  0  0  0
 41 42  1  0  0  0
 42 43  1  0  0  0
 43 44  2  0  0  0
 43 45  1  0  0  0
 40 45  1  0  0  0
 45 39  1  0  0  0
 39  1  1  0  0  0
  1  2  2  0  0  0
  2  3  1  0  0  0
  3  4  2  0  0  0
  4  5  1  0  0  0
  5  6  2  0  0  0
  1  6  1  0  0  0
  5 37  1  0  0  0
 37 38  1  0  0  0
  4  7  1  0  0  0
  3  9  1  0  0  0
  9 10  2  0  0  0
 10 11  1  0  0  0
 11 12  2  0  0  0
 12 13  1  0  0  0
 13 14  2  0  0  0
  9 14  1  0  0  0
 13 19  1  0  0  0
 19 20  1  0  0  0
 20 21  1  0  0  0
 21 22  1  0  0  0
 22 23  1  0  0  0
 23 24  1  0  0  0
 20 24  1  0  0  0
 24 25  2  0  0  0
 21 26  1  0  0  0
 26 27  1  0  0  0
 27 28  2  0  0  0
 28 29  1  0  0  0
 29 30  2  0  0  0
 30 31  1  0  0  0
 31 32  2  0  0  0
 27 32  1  0  0  0
 30 33  1  0  0  0
 33 34  1  0  0  0
 29 35  1  0  0  0
 35 36  1  0  0  0
 11 17  1  0  0  0
 17 18  1  0  0  0
 10 15  1  0  0  0
 48 55  1  0  0  0
 55 56  1  0  0  0
  7  8  1  0  0  0
 15 16  1  0  0  0
M  END
> <minimizedAffinity>
-9.53388

$$$$
mol_3


 49 55  0  0  0  0  0  0  0  0999 V2000
    5.8293   26.2659   43.1478 C   0  0  0  0  0  0  0  0  0  0  0  0
    6.6667   26.9944   44.1005 N   0  0  0  0  0  0  0  0  0  0  0  0
    6.2820   26.5927   45.4725 C   0  0  0  0  0  0  0  0  0  0  0  0
    7.4201   26.5151   46.4877 C   0  0  0  0  0  0  0  0  0  0  0  0
    8.4836   25.6206   45.9129 C   0  0  0  0  0  0  0  0  0  0  0  0
    9.0606   24.5913   46.6475 C   0  0  0  0  0  0  0  0  0  0  0  0
    9.9838   23.7394   46.0402 C   0  0  0  0  0  0  0  0  0  0  0  0
   10.4549   24.0317   44.7349 C   0  0  0  0  0  0  0  0  0  0  0  0
    9.9807   25.1684   44.0218 C   0  0  0  0  0  0  0  0  0  0  0  0
    8.8813   25.8594   44.5850 C   0  0  0  0  0  0  0  0  0  0  0  0
    8.1383   26.9497   43.8180 C   0  0  0  0  0  0  0  0  0  0  0  0
    8.4899   26.8769   42.3093 C   0  0  0  0  0  0  0  0  0  0  0  0
    9.9822   26.7870   42.0692 C   0  0  0  0  0  0  0  0  0  0  0  0
   10.6989   27.5458   41.1135 C   0  0  0  0  0  0  0  0  0  0  0  0
   12.0014   27.1595   40.7475 C   0  0  0  0  0  0  0  0  0  0  0  0
   12.6243   26.0845   41.3645 C   0  0  0  0  0  0  0  0  0  0  0  0
   11.9640   25.4542   42.4248 C   0  0  0  0  0  0  0  0  0  0  0  0
   10.6431   25.7644   42.8052 C   0  0  0  0  0  0  0  0  0  0  0  0
   12.6479   27.8830   39.7738 O   0  0  0  0  0  0  0  0  0  0  0  0
   12.0339   28.5909   39.5039 H   0  0  0  0  0  0  0  0  0  0  0  0
   13.8654   25.5722   41.0971 O   0  0  0  0  0  0  0  0  0  0  0  0
   14.6931   25.2812   42.2177 C   0  0  0  0  0  0  0  0  0  0  0  0
   11.2636   23.1696   44.0260 O   0  0  0  0  0  0  0  0  0  0  0  0
   10.6240   22.1254   43.3012 C   0  0  0  0  0  0  0  0  0  0  0  0
   10.4784   22.6299   46.6775 O   0  0  0  0  0  0  0  0  0  0  0  0
    9.7809   22.1757   47.8308 C   0  0  0  0  0  0  0  0  0  0  0  0
   10.2682   28.6378   40.3829 O   0  0  0  0  0  0  0  0  0  0  0  0
   10.2688   29.9026   40.8998 C   0  0  0  0  0  0  0  0  0  0  0  0
   10.4442   31.0753   40.1730 C   0  0  0  0  0  0  0  0  0  0  0  0
   10.8564   32.2210   40.8553 C   0  0  0  0  0  0  0  0  0  0  0  0
   10.9971   32.2152   42.2523 C   0  0  0  0  0  0  0  0  0  0  0  0
   10.4539   31.1421   42.9527 C   0  0  0  0  0  0  0  0  0  0  0  0
   10.1390   29.9674   42.2808 C   0  0  0  0  0  0  0  0  0  0  0  0
   11.8061   33.3187   42.8961 C   0  0  0  0  0  0  0  0  0  0  0  0
   13.3245   33.1453   43.2876 C   0  0  0  0  0  0  0  0  0  0  0  0
   13.4918   32.1629   44.4413 C   0  0  0  0  0  0  0  0  0  0  0  0
   12.7967   32.4006   45.6462 C   0  0  0  0  0  0  0  0  0  0  0  0
   12.8391   31.4881   46.6947 C   0  0  0  0  0  0  0  0  0  0  0  0
   13.6108   30.3362   46.5407 C   0  0  0  0  0  0  0  0  0  0  0  0
   14.3474   30.1019   45.3846 C   0  0  0  0  0  0  0  0  0  0  0  0
   14.2985   31.0203   44.3268 C   0  0  0  0  0  0  0  0  0  0  0  0
   15.1720   30.8156   43.1190 C   0  0  0  0  0  0  0  0  0  0  0  0
   14.7944   31.6741   41.9069 C   0  0  0  0  0  0  0  0  0  0  0  0
   14.3707   33.0340   42.2405 N   0  0  0  0  0  0  0  0  0  0  0  0
   14.0716   33.7876   41.0296 C   0  0  0  0  0  0  0  0  0  0  0  0
   13.6661   29.4086   47.5452 O   0  0  0  0  0  0  0  0  0  0  0  0
   13.0859   29.7665   48.2449 H   0  0  0  0  0  0  0  0  0  0  0  0
   12.1801   31.6104   47.8908 O   0  0  0  0  0  0  0  0  0  0  0  0
   12.0667   32.9301   48.4163 C   0  0  0  0  0  0  0  0  0  0  0  0
  1  2  1  0  0  0
  2  3  1  0  0  0
  3  4  1  0  0  0
  4  5  1  0  0  0
  5  6  2  0  0  0
  6  7  1  0  0  0
  7  8  2  0  0  0
  8  9  1  0  0  0
  9 10  2  0  0  0
  5 10  1  0  0  0
 10 11  1  0  0  0
  2 11  1  0  0  0
 11 12  1  0  0  0
 12 13  1  0  0  0
 13 14  2  0  0  0
 14 15  1  0  0  0
 15 16  2  0  0  0
 16 17  1  0  0  0
 17 18  2  0  0  0
 13 18  1  0  0  0
  9 18  1  0  0  0
 16 21  1  0  0  0
 21 22  1  0  0  0
 15 19  1  0  0  0
 14 27  1  0  0  0
 27 28  1  0  0  0
 28 29  2  0  0  0
 29 30  1  0  0  0
 30 31  2  0  0  0
 31 32  1  0  0  0
 32 33  2  0  0  0
 28 33  1  0  0  0
 31 34  1  0  0  0
 34 35  1  0  0  0
 35 36  1  0  0  0
 36 37  2  0  0  0
 37 38  1  0  0  0
 38 39  2  0  0  0
 39 40  1  0  0  0
 40 41  2  0  0  0
 36 41  1  0  0  0
 41 42  1  0  0  0
 42 43  1  0  0  0
 43 44  1  0  0  0
 35 44  1  0  0  0
 44 45  1  0  0  0
 39 46  1  0  0  0
 38 48  1  0  0  0
 48 49  1  0  0  0
  8 23  1  0  0  0
 23 24  1  0  0  0
  7 25  1  0  0  0
 25 26  1  0  0  0
 19 20  1  0  0  0
 46 47  1  0  0  0
M  END
> <minimizedAffinity>
-10.14402

$$$$
mol_4


 39 41  0  0  0  0  0  0  0  0999 V2000
   10.5979   31.2395   38.9674 O   0  0  0  0  0  0  0  0  0  0  0  0
    9.2939   31.6374   39.9893 P   0  0  0  0  0  0  0  0  0  0  0  0
    8.6920   32.9568   39.4921 O   0  0  0  0  0  0  0  0  0  0  0  0
   10.4154   32.5901   40.9909 N   0  0  0  0  0  0  0  0  0  0  0  0
   10.1506   33.5462   41.2011 H   0  0  0  0  0  0  0  0  0  0  0  0
   11.2116   31.8476   41.9660 C   0  0  0  0  0  0  0  0  0  0  0  0
   10.3604   30.9450   42.8462 C   0  0  0  0  0  0  0  0  0  0  0  0
   12.0352   32.7938   42.8410 C   0  0  0  0  0  0  0  0  0  0  0  0
   11.6542   33.8760   43.2670 O   0  0  0  0  0  0  0  0  0  0  0  0
   13.2522   32.2276   43.0940 O   0  0  0  0  0  0  0  0  0  0  0  0
   14.7464   33.4019   41.6582 C   0  0  0  0  0  0  0  0  0  0  0  0
   14.1329   32.0397   41.9699 C   0  0  0  0  0  0  0  0  0  0  0  0
   15.2267   31.0350   42.3137 C   0  0  0  0  0  0  0  0  0  0  0  0
    8.2040   30.7113   39.0160 O   0  0  0  0  0  0  0  0  0  0  0  0
    7.0201   30.3047   39.5778 C   0  0  0  0  0  0  0  0  0  0  0  0
    5.7999   30.3982   38.9103 C   0  0  0  0  0  0  0  0  0  0  0  0
    4.6216   30.0649   39.5811 C   0  0  0  0  0  0  0  0  0  0  0  0
    4.6691   29.6253   40.9046 C   0  0  0  0  0  0  0  0  0  0  0  0
    5.8965   29.5000   41.5552 C   0  0  0  0  0  0  0  0  0  0  0  0
    7.0749   29.8332   40.8879 C   0  0  0  0  0  0  0  0  0  0  0  0
   10.5584   30.0055   38.2321 C   0  0  0  0  0  0  0  0  0  0  0  0
   11.5210   29.8467   37.0478 C   0  0  0  0  0  0  0  0  0  0  0  0
   11.0831   30.7655   35.8913 C   0  0  0  0  0  0  0  0  0  0  0  0
   12.3749   30.9761   35.1269 C   0  0  0  0  0  0  0  0  0  0  0  0
   13.3863   31.0812   36.2798 C   0  0  0  0  0  0  0  0  0  0  0  0
   12.8685   30.2871   37.3872 O   0  0  0  0  0  0  0  0  0  0  0  0
   12.3653   32.1634   34.1781 C   0  0  0  0  0  0  0  0  0  0  0  0
   12.6062   29.8479   34.3901 F   0  0  0  0  0  0  0  0  0  0  0  0
   10.5320   32.0139   36.3342 O   0  0  0  0  0  0  0  0  0  0  0  0
   11.1057   32.4179   37.0106 H   0  0  0  0  0  0  0  0  0  0  0  0
   14.7467   30.6664   35.9355 N   0  0  0  0  0  0  0  0  0  0  0  0
   15.0515   29.3283   35.7825 C   0  0  0  0  0  0  0  0  0  0  0  0
   16.2695   28.9136   35.4269 C   0  0  0  0  0  0  0  0  0  0  0  0
   17.3211   29.9142   35.2021 C   0  0  0  0  0  0  0  0  0  0  0  0
   18.4633   29.5776   34.9001 O   0  0  0  0  0  0  0  0  0  0  0  0
   16.9425   31.2155   35.3450 N   0  0  0  0  0  0  0  0  0  0  0  0
   15.6883   31.6575   35.6841 C   0  0  0  0  0  0  0  0  0  0  0  0
   15.4496   32.8614   35.7422 O   0  0  0  0  0  0  0  0  0  0  0  0
   17.6460   31.9179   35.1775 H   0  0  0  0  0  0  0  0  0  0  0  0
 11 12  1  0  0  0
 12 13  1  0  0  0
 12 10  1  0  0  0
 10  8  1  0  0  0
  8  9  2  0  0  0
  8  6  1  0  0  0
  6  7  1  0  0  0
  6  4  1  0  0  0
  4  2  1  0  0  0
  2  3  2  0  0  0
  2  1  1  0  0  0
  1 21  1  0  0  0
 21 22  1  0  0  0
 22 23  1  0  0  0
 23 24  1  0  0  0
 24 25  1  0  0  0
 25 26  1  0  0  0
 22 26  1  0  0  0
 25 31  1  0  0  0
 31 32  1  0  0  0
 32 33  2  0  0  0
 33 34  1  0  0  0
 34 35  2  0  0  0
 34 36  1  0  0  0
 36 37  1  0  0  0
 31 37  1  0  0  0
 37 38  2  0  0  0
 24 27  1  0  0  0
 24 28  1  0  0  0
 23 29  1  0  0  0
  2 14  1  0  0  0
 14 15  1  0  0  0
 15 16  2  0  0  0
 16 17  1  0  0  0
 17 18  2  0  0  0
 18 19  1  0  0  0
 19 20  2  0  0  0
 15 20  1  0  0  0
  4  5  1  0  0  0
 36 39  1  0  0  0
 29 30  1  0  0  0
M  END
> <minimizedAffinity>
-8.78278

$$$$
