mol_0


 47 50  0  0  0  0  0  0  0  0999 V2000
    7.0047   30.3523   40.0305 C   0  0  0  0  0  0  0  0  0  0  0  0
    8.0116   30.8642   39.4053 N   0  0  0  0  0  0  0  0  0  0  0  0
    8.0011   31.6573   38.1234 C   0  0  0  0  0  0  0  0  0  0  0  0
    9.4653   31.6108   37.6421 C   0  0  0  0  0  0  0  0  0  0  0  0
   10.2016   31.3863   38.9350 C   0  0  0  0  0  0  0  0  0  0  0  0
   11.5561   31.5807   39.2278 C   0  0  0  0  0  0  0  0  0  0  0  0
   11.9590   31.5128   40.5669 C   0  0  0  0  0  0  0  0  0  0  0  0
   10.9765   31.3435   41.5431 C   0  0  0  0  0  0  0  0  0  0  0  0
    9.6776   30.9708   41.2534 C   0  0  0  0  0  0  0  0  0  0  0  0
    9.3050   30.9893   39.9290 C   0  0  0  0  0  0  0  0  0  0  0  0
   11.2001   31.7186   42.8337 O   0  0  0  0  0  0  0  0  0  0  0  0
   11.6803   32.5679   42.7684 H   0  0  0  0  0  0  0  0  0  0  0  0
    4.5312   29.4366   41.4705 C   0  0  0  0  0  0  0  0  0  0  0  0
    3.3322   28.7473   42.1583 C   0  0  0  0  0  0  0  0  0  0  0  0
    3.7150   27.9032   43.3142 N   0  0  0  0  0  0  0  0  0  0  0  0
    5.0329   27.6091   43.6344 C   0  0  0  0  0  0  0  0  0  0  0  0
    6.0830   28.0817   42.9489 C   0  0  0  0  0  0  0  0  0  0  0  0
    5.9353   28.9807   41.8174 C   0  0  0  0  0  0  0  0  0  0  0  0
    7.0363   29.3575   41.1390 C   0  0  0  0  0  0  0  0  0  0  0  0
    3.0844   27.0932   43.3943 H   0  0  0  0  0  0  0  0  0  0  0  0
    5.3434   26.7029   44.7993 C   0  0  0  0  0  0  0  0  0  0  0  0
    6.4657   26.3932   45.1719 O   0  0  0  0  0  0  0  0  0  0  0  0
    4.2087   26.2995   45.4095 O   0  0  0  0  0  0  0  0  0  0  0  0
    3.4433   26.7907   45.0500 H   0  0  0  0  0  0  0  0  0  0  0  0
    2.4620   27.9039   41.2045 C   0  0  0  0  0  0  0  0  0  0  0  0
    1.9973   26.8186   41.5428 O   0  0  0  0  0  0  0  0  0  0  0  0
    2.1377   28.4676   40.0239 O   0  0  0  0  0  0  0  0  0  0  0  0
    2.5207   29.3359   39.7956 H   0  0  0  0  0  0  0  0  0  0  0  0
    7.0166   31.1304   37.0846 C   0  0  0  0  0  0  0  0  0  0  0  0
    6.0877   31.9149   36.7446 O   0  0  0  0  0  0  0  0  0  0  0  0
    7.3018   29.9855   36.6477 O   0  0  0  0  0  0  0  0  0  0  0  0
   13.2080   31.9064   40.9360 O   0  0  0  0  0  0  0  0  0  0  0  0
   14.2404   30.9108   41.2110 C   0  0  0  0  0  0  0  0  0  0  0  0
   15.1135   31.3629   42.4118 C   0  0  0  0  0  0  0  0  0  0  0  0
   14.5644   30.8497   43.7474 C   0  0  0  0  0  0  0  0  0  0  0  0
   14.2994   29.3438   43.6918 C   0  0  0  0  0  0  0  0  0  0  0  0
   13.4919   28.9160   42.4541 C   0  0  0  0  0  0  0  0  0  0  0  0
   13.9258   29.5147   41.2242 O   0  0  0  0  0  0  0  0  0  0  0  0
   15.5760   28.6831   43.7639 O   0  0  0  0  0  0  0  0  0  0  0  0
   15.4847   31.1282   44.8155 O   0  0  0  0  0  0  0  0  0  0  0  0
   15.2824   32.7878   42.4293 O   0  0  0  0  0  0  0  0  0  0  0  0
   15.9783   28.6688   42.8762 H   0  0  0  0  0  0  0  0  0  0  0  0
   16.0246   30.3204   44.9345 H   0  0  0  0  0  0  0  0  0  0  0  0
   14.4022   33.1996   42.4428 H   0  0  0  0  0  0  0  0  0  0  0  0
   13.5236   27.3781   42.2906 C   0  0  0  0  0  0  0  0  0  0  0  0
   14.7985   26.8966   41.8671 O   0  0  0  0  0  0  0  0  0  0  0  0
   15.2542   27.6018   41.3823 H   0  0  0  0  0  0  0  0  0  0  0  0
 13 14  1  0  0  0
 14 15  1  0  0  0
 15 16  1  0  0  0
 16 17  2  0  0  0
 17 18  1  0  0  0
 13 18  1  0  0  0
 18 19  2  0  0  0
 19  1  1  0  0  0
  1  2  2  0  0  0
  2  3  1  0  0  0
  3  4  1  0  0  0
  4  5  1  0  0  0
  5  6  2  0  0  0
  6  7  1  0  0  0
  7  8  2  0  0  0
  8  9  1  0  0  0
  9 10  2  0  0  0
  5 10  1  0  0  0
  2 10  1  0  0  0
  8 11  1  0  0  0
  7 32  1  0  0  0
 32 33  1  0  0  0
 33 34  1  0  0  0
 34 35  1  0  0  0
 35 36  1  0  0  0
 36 37  1  0  0  0
 37 38  1  0  0  0
 33 38  1  0  0  0
 37 45  1  0  0  0
 45 46  1  0  0  0
 36 39  1  0  0  0
 35 40  1  0  0  0
 34 41  1  0  0  0
  3 29  1  0  0  0
 29 30  2  0  0  0
 29 31  1  0  0  0
 16 21  1  0  0  0
 21 22  2  0  0  0
 21 23  1  0  0  0
 14 25  1  0  0  0
 25 26  2  0  0  0
 25 27  1  0  0  0
 15 20  1  0  0  0
 11 12  1  0  0  0
 46 47  1  0  0  0
 39 42  1  0  0  0
 40 43  1  0  0  0
 41 44  1  0  0  0
 23 24  1  0  0  0
 27 28  1  0  0  0
M  CHG 1   2   1
M  CHG 1  31  -1
M  END
> <minimizedAffinity>
-10.60390

$$$$
mol_1


 53 59  0  0  0  0  0  0  0  0999 V2000
   10.2528   23.7610   46.0161 C   0  0  0  0  0  0  0  0  0  0  0  0
    9.8261   25.1096   46.3976 N   0  0  0  0  0  0  0  0  0  0  0  0
    8.5849   25.0105   47.1890 C   0  0  0  0  0  0  0  0  0  0  0  0
    7.6241   26.1834   47.0152 C   0  0  0  0  0  0  0  0  0  0  0  0
    7.2825   26.2692   45.5448 C   0  0  0  0  0  0  0  0  0  0  0  0
    8.3842   26.2428   44.6468 C   0  0  0  0  0  0  0  0  0  0  0  0
    9.7668   26.1147   45.2828 C   0  0  0  0  0  0  0  0  0  0  0  0
   10.9287   25.9808   44.2786 C   0  0  0  0  0  0  0  0  0  0  0  0
   10.7123   26.5765   42.9074 C   0  0  0  0  0  0  0  0  0  0  0  0
   11.8499   26.8145   42.0896 C   0  0  0  0  0  0  0  0  0  0  0  0
   11.6848   26.8763   40.6998 C   0  0  0  0  0  0  0  0  0  0  0  0
   10.4237   27.0891   40.1724 C   0  0  0  0  0  0  0  0  0  0  0  0
    9.3146   27.0170   41.0245 C   0  0  0  0  0  0  0  0  0  0  0  0
    9.4025   26.6528   42.3828 C   0  0  0  0  0  0  0  0  0  0  0  0
    8.1976   26.4184   43.2565 C   0  0  0  0  0  0  0  0  0  0  0  0
    6.8422   26.4136   42.7963 C   0  0  0  0  0  0  0  0  0  0  0  0
    5.7325   26.4057   43.6891 C   0  0  0  0  0  0  0  0  0  0  0  0
    5.9765   26.3790   45.0641 C   0  0  0  0  0  0  0  0  0  0  0  0
    4.9444   26.4330   45.9591 O   0  0  0  0  0  0  0  0  0  0  0  0
   12.7374   26.6594   39.8485 O   0  0  0  0  0  0  0  0  0  0  0  0
    5.0763   25.7215   46.6060 H   0  0  0  0  0  0  0  0  0  0  0  0
   13.4647   26.2840   40.3730 H   0  0  0  0  0  0  0  0  0  0  0  0
    4.4939   26.4002   43.0997 O   0  0  0  0  0  0  0  0  0  0  0  0
    3.7681   27.6064   42.9361 C   0  0  0  0  0  0  0  0  0  0  0  0
    6.6452   26.2319   41.4389 O   0  0  0  0  0  0  0  0  0  0  0  0
    6.3836   24.8995   41.0015 C   0  0  0  0  0  0  0  0  0  0  0  0
   10.1023   27.3302   38.8613 O   0  0  0  0  0  0  0  0  0  0  0  0
    8.7563   27.7074   38.5959 C   0  0  0  0  0  0  0  0  0  0  0  0
   13.0730   26.8998   42.7383 O   0  0  0  0  0  0  0  0  0  0  0  0
   13.5583   28.1131   43.1910 C   0  0  0  0  0  0  0  0  0  0  0  0
   12.8884   28.9918   44.0426 C   0  0  0  0  0  0  0  0  0  0  0  0
   13.2606   30.3403   44.0762 C   0  0  0  0  0  0  0  0  0  0  0  0
   14.3684   30.7933   43.3491 C   0  0  0  0  0  0  0  0  0  0  0  0
   15.2083   29.8301   42.7812 C   0  0  0  0  0  0  0  0  0  0  0  0
   14.7828   28.5045   42.6576 C   0  0  0  0  0  0  0  0  0  0  0  0
   14.6037   32.2823   43.1709 C   0  0  0  0  0  0  0  0  0  0  0  0
   13.6597   33.1097   42.2102 C   0  0  0  0  0  0  0  0  0  0  0  0
   13.1922   32.2643   41.0326 C   0  0  0  0  0  0  0  0  0  0  0  0
   14.0882   31.9552   39.9921 C   0  0  0  0  0  0  0  0  0  0  0  0
   13.7367   31.0817   38.9526 C   0  0  0  0  0  0  0  0  0  0  0  0
   12.4928   30.4398   38.9992 C   0  0  0  0  0  0  0  0  0  0  0  0
   11.5874   30.7953   40.0184 C   0  0  0  0  0  0  0  0  0  0  0  0
   11.8988   31.7292   41.0100 C   0  0  0  0  0  0  0  0  0  0  0  0
   10.8676   32.1670   42.0198 C   0  0  0  0  0  0  0  0  0  0  0  0
   11.3902   33.0764   43.1463 C   0  0  0  0  0  0  0  0  0  0  0  0
   12.5398   33.8985   42.7648 N   0  0  0  0  0  0  0  0  0  0  0  0
   12.9331   34.8033   43.8358 C   0  0  0  0  0  0  0  0  0  0  0  0
   10.3600   30.1773   40.0618 O   0  0  0  0  0  0  0  0  0  0  0  0
   10.3777   29.5425   39.3186 H   0  0  0  0  0  0  0  0  0  0  0  0
   11.9879   29.4827   38.1510 O   0  0  0  0  0  0  0  0  0  0  0  0
   11.4459   29.9024   36.9069 C   0  0  0  0  0  0  0  0  0  0  0  0
   14.6104   30.8013   37.9353 O   0  0  0  0  0  0  0  0  0  0  0  0
   14.5770   31.6987   36.8276 C   0  0  0  0  0  0  0  0  0  0  0  0
  1  2  1  0  0  0
  2  3  1  0  0  0
  3  4  1  0  0  0
  4  5  1  0  0  0
  5  6  2  0  0  0
  6  7  1  0  0  0
  2  7  1  0  0  0
  7  8  1  0  0  0
  8  9  1  0  0  0
  9 10  2  0  0  0
 10 11  1  0  0  0
 11 12  2  0  0  0
 12 13  1  0  0  0
 13 14  2  0  0  0
  9 14  1  0  0  0
 14 15  1  0  0  0
  6 15  1  0  0  0
 15 16  2  0  0  0
 16 17  1  0  0  0
 17 18  2  0  0  0
  5 18  1  0  0  0
 18 19  1  0  0  0
 17 23  1  0  0  0
 23 24  1  0  0  0
 16 25  1  0  0  0
 25 26  1  0  0  0
 12 27  1  0  0  0
 27 28  1  0  0  0
 11 20  1  0  0  0
 10 29  1  0  0  0
 29 30  1  0  0  0
 30 31  2  0  0  0
 31 32  1  0  0  0
 32 33  2  0  0  0
 33 34  1  0  0  0
 34 35  2  0  0  0
 30 35  1  0  0  0
 33 36  1  0  0  0
 36 37  1  0  0  0
 37 38  1  0  0  0
 38 39  2  0  0  0
 39 40  1  0  0  0
 40 41  2  0  0  0
 41 42  1  0  0  0
 42 43  2  0  0  0
 38 43  1  0  0  0
 43 44  1  0  0  0
 44 45  1  0  0  0
 45 46  1  0  0  0
 37 46  1  0  0  0
 46 47  1  0  0  0
 42 48  1  0  0  0
 41 50  1  0  0  0
 50 51  1  0  0  0
 40 52  1  0  0  0
 52 53  1  0  0  0
 19 21  1  0  0  0
 20 22  1  0  0  0
 48 49  1  0  0  0
M  END
> <minimizedAffinity>
-9.35279

$$$$
mol_2


 56 61  0  0  0  0  0  0  0  0999 V2000
    6.1504   28.5506   40.5563 C   0  0  0  0  0  0  0  0  0  0  0  0
    7.4321   28.1164   40.8775 C   0  0  0  0  0  0  0  0  0  0  0  0
    8.4881   28.3367   39.9887 C   0  0  0  0  0  0  0  0  0  0  0  0
    8.2119   28.8556   38.7056 C   0  0  0  0  0  0  0  0  0  0  0  0
    6.9318   29.3031   38.3688 C   0  0  0  0  0  0  0  0  0  0  0  0
    5.9198   29.1741   39.3176 C   0  0  0  0  0  0  0  0  0  0  0  0
    9.2184   29.0130   37.7827 O   0  0  0  0  0  0  0  0  0  0  0  0
    9.9358   28.3987   38.0147 H   0  0  0  0  0  0  0  0  0  0  0  0
    9.8357   28.3862   40.5582 C   0  0  0  0  0  0  0  0  0  0  0  0
   10.9263   27.6046   40.1697 C   0  0  0  0  0  0  0  0  0  0  0  0
   12.1508   27.7085   40.8514 C   0  0  0  0  0  0  0  0  0  0  0  0
   12.2889   28.6591   41.8736 C   0  0  0  0  0  0  0  0  0  0  0  0
   11.2116   29.4712   42.2571 C   0  0  0  0  0  0  0  0  0  0  0  0
    9.9849   29.2620   41.6465 C   0  0  0  0  0  0  0  0  0  0  0  0
   10.8243   26.7069   39.1377 O   0  0  0  0  0  0  0  0  0  0  0  0
    9.9368   26.7642   38.7487 H   0  0  0  0  0  0  0  0  0  0  0  0
   13.1472   26.8574   40.4460 O   0  0  0  0  0  0  0  0  0  0  0  0
   13.6512   25.9426   41.4097 C   0  0  0  0  0  0  0  0  0  0  0  0
   11.3585   30.5099   43.3316 C   0  0  0  0  0  0  0  0  0  0  0  0
   12.7699   30.9840   43.7437 C   0  0  0  0  0  0  0  0  0  0  0  0
   13.5860   32.1003   43.0628 C   0  0  0  0  0  0  0  0  0  0  0  0
   13.8326   33.1043   44.1918 C   0  0  0  0  0  0  0  0  0  0  0  0
   13.5159   32.4747   45.4247 O   0  0  0  0  0  0  0  0  0  0  0  0
   12.8099   31.3395   45.2103 C   0  0  0  0  0  0  0  0  0  0  0  0
   12.3169   30.6760   46.1096 O   0  0  0  0  0  0  0  0  0  0  0  0
   13.1483   32.8861   41.8152 C   0  0  0  0  0  0  0  0  0  0  0  0
   12.9039   32.2112   40.4926 C   0  0  0  0  0  0  0  0  0  0  0  0
   11.6141   32.2846   39.9389 C   0  0  0  0  0  0  0  0  0  0  0  0
   11.2492   31.5677   38.7863 C   0  0  0  0  0  0  0  0  0  0  0  0
   12.1921   30.7242   38.1804 C   0  0  0  0  0  0  0  0  0  0  0  0
   13.4859   30.6750   38.7170 C   0  0  0  0  0  0  0  0  0  0  0  0
   13.8448   31.4383   39.8306 C   0  0  0  0  0  0  0  0  0  0  0  0
   11.8232   30.0038   37.0767 O   0  0  0  0  0  0  0  0  0  0  0  0
   12.8188   29.2254   36.4259 C   0  0  0  0  0  0  0  0  0  0  0  0
    9.9547   31.8203   38.4119 O   0  0  0  0  0  0  0  0  0  0  0  0
    9.0504   32.3319   39.3781 C   0  0  0  0  0  0  0  0  0  0  0  0
    6.7858   29.9009   37.1444 O   0  0  0  0  0  0  0  0  0  0  0  0
    6.4116   31.2730   37.1371 C   0  0  0  0  0  0  0  0  0  0  0  0
    5.0692   28.5266   41.5972 C   0  0  0  0  0  0  0  0  0  0  0  0
    4.2560   26.5707   43.0338 C   0  0  0  0  0  0  0  0  0  0  0  0
    2.8640   26.0120   43.2428 C   0  0  0  0  0  0  0  0  0  0  0  0
    1.9952   26.7064   42.3560 O   0  0  0  0  0  0  0  0  0  0  0  0
    2.7008   27.4435   41.4520 C   0  0  0  0  0  0  0  0  0  0  0  0
    2.1534   28.0867   40.5779 O   0  0  0  0  0  0  0  0  0  0  0  0
    4.1879   27.2811   41.6748 C   0  0  0  0  0  0  0  0  0  0  0  0
    4.8024   27.3267   44.2726 C   0  0  0  0  0  0  0  0  0  0  0  0
    8.3877   26.0168   46.3739 C   0  0  0  0  0  0  0  0  0  0  0  0
    8.1907   25.7258   45.0192 C   0  0  0  0  0  0  0  0  0  0  0  0
    7.0156   26.1682   44.3854 C   0  0  0  0  0  0  0  0  0  0  0  0
    6.0076   26.8704   45.0714 C   0  0  0  0  0  0  0  0  0  0  0  0
    6.2220   27.1247   46.4240 C   0  0  0  0  0  0  0  0  0  0  0  0
    7.4049   26.7358   47.0575 C   0  0  0  0  0  0  0  0  0  0  0  0
    9.5638   24.3680   47.5696 C   0  0  0  0  0  0  0  0  0  0  0  0
    9.5618   25.6708   46.9891 O   0  0  0  0  0  0  0  0  0  0  0  0
    9.0304   25.0484   44.1736 O   0  0  0  0  0  0  0  0  0  0  0  0
    9.6097   25.7827   43.1035 C   0  0  0  0  0  0  0  0  0  0  0  0
 53 54  1  0  0  0
 54 47  1  0  0  0
 47 48  2  0  0  0
 48 49  1  0  0  0
 49 50  2  0  0  0
 50 51  1  0  0  0
 51 52  2  0  0  0
 47 52  1  0  0  0
 50 46  1  0  0  0
 46 40  1  0  0  0
 40 41  1  0  0  0
 41 42  1  0  0  0
 42 43  1  0  0  0
 43 44  2  0  0  0
 43 45  1  0  0  0
 40 45  1  0  0  0
 45 39  1  0  0  0
 39  1  1  0  0  0
  1  2  2  0  0  0
  2  3  1  0  0  0
  3  4  2  0  0  0
  4  5  1  0  0  0
  5  6  2  0  0  0
  1  6  1  0  0  0
  5 37  1  0  0  0
 37 38  1  0  0  0
  4  7  1  0  0  0
  3  9  1  0  0  0
  9 10  2  0  0  0
 10 11  1  0  0  0
 11 12  2  0  0  0
 12 13  1  0  0  0
 13 14  2  0  0  0
  9 14  1  0  0  0
 13 19  1  0  0  0
 19 20  1  0  0  0
 20 21  1  0  0  0
 21 22  1  0  0  0
 22 23  1  0  0  0
 23 24  1  0  0  0
 20 24  1  0  0  0
 24 25  2  0  0  0
 21 26  1  0  0  0
 26 27  1  0  0  0
 27 28  2  0  0  0
 28 29  1  0  0  0
 29 30  2  0  0  0
 30 31  1  0  0  0
 31 32  2  0  0  0
 27 32  1  0  0  0
 30 33  1  0  0  0
 33 34  1  0  0  0
 29 35  1  0  0  0
 35 36  1  0  0  0
 11 17  1  0  0  0
 17 18  1  0  0  0
 10 15  1  0  0  0
 48 55  1  0  0  0
 55 56  1  0  0  0
  7  8  1  0  0  0
 15 16  1  0  0  0
M  END
> <minimizedAffinity>
-9.22019

$$$$
mol_3


 49 55  0  0  0  0  0  0  0  0999 V2000
    6.0308   29.2539   38.4611 C   0  0  0  0  0  0  0  0  0  0  0  0
    5.9166   29.8709   39.7825 N   0  0  0  0  0  0  0  0  0  0  0  0
    4.5291   30.3557   39.9601 C   0  0  0  0  0  0  0  0  0  0  0  0
    3.9606   30.2451   41.3730 C   0  0  0  0  0  0  0  0  0  0  0  0
    4.1235   28.8183   41.8196 C   0  0  0  0  0  0  0  0  0  0  0  0
    3.0812   28.0995   42.3930 C   0  0  0  0  0  0  0  0  0  0  0  0
    3.2620   26.7537   42.7144 C   0  0  0  0  0  0  0  0  0  0  0  0
    4.5532   26.1760   42.6144 C   0  0  0  0  0  0  0  0  0  0  0  0
    5.6659   26.9413   42.1653 C   0  0  0  0  0  0  0  0  0  0  0  0
    5.3837   28.2221   41.6331 C   0  0  0  0  0  0  0  0  0  0  0  0
    6.4487   29.0479   40.9169 C   0  0  0  0  0  0  0  0  0  0  0  0
    7.6544   28.1504   40.5350 C   0  0  0  0  0  0  0  0  0  0  0  0
    8.1319   27.3026   41.6951 C   0  0  0  0  0  0  0  0  0  0  0  0
    9.4844   27.1323   42.0749 C   0  0  0  0  0  0  0  0  0  0  0  0
    9.8407   26.0843   42.9436 C   0  0  0  0  0  0  0  0  0  0  0  0
    8.8730   25.2563   43.4935 C   0  0  0  0  0  0  0  0  0  0  0  0
    7.5283   25.5476   43.2398 C   0  0  0  0  0  0  0  0  0  0  0  0
    7.1119   26.5517   42.3432 C   0  0  0  0  0  0  0  0  0  0  0  0
   11.1702   25.9102   43.2463 O   0  0  0  0  0  0  0  0  0  0  0  0
   11.6547   26.6088   42.7686 H   0  0  0  0  0  0  0  0  0  0  0  0
    9.0644   24.1835   44.3222 O   0  0  0  0  0  0  0  0  0  0  0  0
    8.0288   23.9041   45.2576 C   0  0  0  0  0  0  0  0  0  0  0  0
    4.7801   24.8278   42.7895 O   0  0  0  0  0  0  0  0  0  0  0  0
    4.5583   23.9797   41.6686 C   0  0  0  0  0  0  0  0  0  0  0  0
    2.2286   25.9660   43.1542 O   0  0  0  0  0  0  0  0  0  0  0  0
    0.9794   26.6028   43.3925 C   0  0  0  0  0  0  0  0  0  0  0  0
   10.5944   27.8357   41.6448 O   0  0  0  0  0  0  0  0  0  0  0  0
   10.6289   29.2015   41.6349 C   0  0  0  0  0  0  0  0  0  0  0  0
   11.2347   29.9901   40.6625 C   0  0  0  0  0  0  0  0  0  0  0  0
   11.5736   31.3032   40.9924 C   0  0  0  0  0  0  0  0  0  0  0  0
   11.2257   31.8444   42.2403 C   0  0  0  0  0  0  0  0  0  0  0  0
   10.3054   31.1445   43.0152 C   0  0  0  0  0  0  0  0  0  0  0  0
   10.0481   29.8069   42.7415 C   0  0  0  0  0  0  0  0  0  0  0  0
   11.9379   33.0957   42.7030 C   0  0  0  0  0  0  0  0  0  0  0  0
   13.4348   33.0898   43.2011 C   0  0  0  0  0  0  0  0  0  0  0  0
   13.6149   32.1759   44.4078 C   0  0  0  0  0  0  0  0  0  0  0  0
   12.8175   32.3915   45.5521 C   0  0  0  0  0  0  0  0  0  0  0  0
   12.8742   31.5305   46.6426 C   0  0  0  0  0  0  0  0  0  0  0  0
   13.7623   30.4557   46.5936 C   0  0  0  0  0  0  0  0  0  0  0  0
   14.5970   30.2496   45.5006 C   0  0  0  0  0  0  0  0  0  0  0  0
   14.5340   31.1154   44.4001 C   0  0  0  0  0  0  0  0  0  0  0  0
   15.5055   30.9502   43.2632 C   0  0  0  0  0  0  0  0  0  0  0  0
   15.1326   31.7177   41.9901 C   0  0  0  0  0  0  0  0  0  0  0  0
   14.5575   33.0410   42.2313 N   0  0  0  0  0  0  0  0  0  0  0  0
   14.2726   33.7121   40.9695 C   0  0  0  0  0  0  0  0  0  0  0  0
   13.8363   29.5791   47.6419 O   0  0  0  0  0  0  0  0  0  0  0  0
   13.1768   29.9054   48.2845 H   0  0  0  0  0  0  0  0  0  0  0  0
   12.1245   31.6345   47.7858 O   0  0  0  0  0  0  0  0  0  0  0  0
   12.1211   32.9087   48.4239 C   0  0  0  0  0  0  0  0  0  0  0  0
  1  2  1  0  0  0
  2  3  1  0  0  0
  3  4  1  0  0  0
  4  5  1  0  0  0
  5  6  2  0  0  0
  6  7  1  0  0  0
  7  8  2  0  0  0
  8  9  1  0  0  0
  9 10  2  0  0  0
  5 10  1  0  0  0
 10 11  1  0  0  0
  2 11  1  0  0  0
 11 12  1  0  0  0
 12 13  1  0  0  0
 13 14  2  0  0  0
 14 15  1  0  0  0
 15 16  2  0  0  0
 16 17  1  0  0  0
 17 18  2  0  0  0
 13 18  1  0  0  0
  9 18  1  0  0  0
 16 21  1  0  0  0
 21 22  1  0  0  0
 15 19  1  0  0  0
 14 27  1  0  0  0
 27 28  1  0  0  0
 28 29  2  0  0  0
 29 30  1  0  0  0
 30 31  2  0  0  0
 31 32  1  0  0  0
 32 33  2  0  0  0
 28 33  1  0  0  0
 31 34  1  0  0  0
 34 35  1  0  0  0
 35 36  1  0  0  0
 36 37  2  0  0  0
 37 38  1  0  0  0
 38 39  2  0  0  0
 39 40  1  0  0  0
 40 41  2  0  0  0
 36 41  1  0  0  0
 41 42  1  0  0  0
 42 43  1  0  0  0
 43 44  1  0  0  0
 35 44  1  0  0  0
 44 45  1  0  0  0
 39 46  1  0  0  0
 38 48  1  0  0  0
 48 49  1  0  0  0
  8 23  1  0  0  0
 23 24  1  0  0  0
  7 25  1  0  0  0
 25 26  1  0  0  0
 19 20  1  0  0  0
 46 47  1  0  0  0
M  END
> <minimizedAffinity>
-10.03478

$$$$
mol_4


 39 41  0  0  0  0  0  0  0  0999 V2000
   16.4610   29.2603   30.2203 O   0  0  0  0  0  0  0  0  0  0  0  0
   17.9516   29.0957   31.0291 P   0  0  0  0  0  0  0  0  0  0  0  0
   18.2483   27.5981   31.1689 O   0  0  0  0  0  0  0  0  0  0  0  0
   17.0655   29.0080   32.5704 N   0  0  0  0  0  0  0  0  0  0  0  0
   16.7163   28.0987   32.8528 H   0  0  0  0  0  0  0  0  0  0  0  0
   17.4551   29.9663   33.6030 C   0  0  0  0  0  0  0  0  0  0  0  0
   18.9288   30.3359   33.5277 C   0  0  0  0  0  0  0  0  0  0  0  0
   17.1267   29.4365   34.9996 C   0  0  0  0  0  0  0  0  0  0  0  0
   17.2697   28.2786   35.3693 O   0  0  0  0  0  0  0  0  0  0  0  0
   16.6750   30.4653   35.7762 O   0  0  0  0  0  0  0  0  0  0  0  0
   14.4928   30.4579   36.7307 C   0  0  0  0  0  0  0  0  0  0  0  0
   15.3290   30.9207   35.5409 C   0  0  0  0  0  0  0  0  0  0  0  0
   15.2937   32.4408   35.4311 C   0  0  0  0  0  0  0  0  0  0  0  0
   18.8127   29.1811   29.5311 O   0  0  0  0  0  0  0  0  0  0  0  0
   18.4198   28.3527   28.5102 C   0  0  0  0  0  0  0  0  0  0  0  0
   17.5311   28.7556   27.5147 C   0  0  0  0  0  0  0  0  0  0  0  0
   17.0928   27.8281   26.5675 C   0  0  0  0  0  0  0  0  0  0  0  0
   17.5555   26.5123   26.6088 C   0  0  0  0  0  0  0  0  0  0  0  0
   18.4721   26.1248   27.5861 C   0  0  0  0  0  0  0  0  0  0  0  0
   18.9109   27.0488   28.5341 C   0  0  0  0  0  0  0  0  0  0  0  0
   15.9206   30.5753   30.0114 C   0  0  0  0  0  0  0  0  0  0  0  0
   14.5037   30.8575   30.5285 C   0  0  0  0  0  0  0  0  0  0  0  0
   13.5077   29.8712   29.8892 C   0  0  0  0  0  0  0  0  0  0  0  0
   12.3768   29.8407   30.8978 C   0  0  0  0  0  0  0  0  0  0  0  0
   13.1589   29.8968   32.2201 C   0  0  0  0  0  0  0  0  0  0  0  0
   14.3977   30.6208   31.9629 O   0  0  0  0  0  0  0  0  0  0  0  0
   11.4377   28.6531   30.7634 C   0  0  0  0  0  0  0  0  0  0  0  0
   11.6427   30.9815   30.7283 F   0  0  0  0  0  0  0  0  0  0  0  0
   14.0566   28.5616   29.6841 O   0  0  0  0  0  0  0  0  0  0  0  0
   14.5100   28.2530   30.4896 H   0  0  0  0  0  0  0  0  0  0  0  0
   12.4272   30.5000   33.3346 N   0  0  0  0  0  0  0  0  0  0  0  0
   12.2513   31.8682   33.3960 C   0  0  0  0  0  0  0  0  0  0  0  0
   11.5535   32.4513   34.3731 C   0  0  0  0  0  0  0  0  0  0  0  0
   10.9634   31.6092   35.4222 C   0  0  0  0  0  0  0  0  0  0  0  0
   10.3363   32.1042   36.3554 O   0  0  0  0  0  0  0  0  0  0  0  0
   11.1546   30.2671   35.2833 N   0  0  0  0  0  0  0  0  0  0  0  0
   11.8467   29.6519   34.2705 C   0  0  0  0  0  0  0  0  0  0  0  0
   11.9184   28.4262   34.2236 O   0  0  0  0  0  0  0  0  0  0  0  0
   10.7420   29.6711   35.9841 H   0  0  0  0  0  0  0  0  0  0  0  0
 11 12  1  0  0  0
 12 13  1  0  0  0
 12 10  1  0  0  0
 10  8  1  0  0  0
  8  9  2  0  0  0
  8  6  1  0  0  0
  6  7  1  0  0  0
  6  4  1  0  0  0
  4  2  1  0  0  0
  2  3  2  0  0  0
  2  1  1  0  0  0
  1 21  1  0  0  0
 21 22  1  0  0  0
 22 23  1  0  0  0
 23 24  1  0  0  0
 24 25  1  0  0  0
 25 26  1  0  0  0
 22 26  1  0  0  0
 25 31  1  0  0  0
 31 32  1  0  0  0
 32 33  2  0  0  0
 33 34  1  0  0  0
 34 35  2  0  0  0
 34 36  1  0  0  0
 36 37  1  0  0  0
 31 37  1  0  0  0
 37 38  2  0  0  0
 24 27  1  0  0  0
 24 28  1  0  0  0
 23 29  1  0  0  0
  2 14  1  0  0  0
 14 15  1  0  0  0
 15 16  2  0  0  0
 16 17  1  0  0  0
 17 18  2  0  0  0
 18 19  1  0  0  0
 19 20  2  0  0  0
 15 20  1  0  0  0
  4  5  1  0  0  0
 36 39  1  0  0  0
 29 30  1  0  0  0
M  END
> <minimizedAffinity>
-9.08740

$$$$
