mol_0


 47 50  0  0  0  0  0  0  0  0999 V2000
   11.1199   30.3397   39.6197 C   0  0  0  0  0  0  0  0  0  0  0  0
    9.9965   29.9042   39.1559 N   0  0  0  0  0  0  0  0  0  0  0  0
    9.2532   30.3760   37.9323 C   0  0  0  0  0  0  0  0  0  0  0  0
    7.8239   29.8318   38.1291 C   0  0  0  0  0  0  0  0  0  0  0  0
    8.0707   28.6528   39.0307 C   0  0  0  0  0  0  0  0  0  0  0  0
    7.2422   27.5588   39.3044 C   0  0  0  0  0  0  0  0  0  0  0  0
    7.7868   26.4770   40.0068 C   0  0  0  0  0  0  0  0  0  0  0  0
    9.1467   26.5102   40.3176 C   0  0  0  0  0  0  0  0  0  0  0  0
    9.9190   27.6517   40.2157 C   0  0  0  0  0  0  0  0  0  0  0  0
    9.3564   28.7288   39.5701 C   0  0  0  0  0  0  0  0  0  0  0  0
    9.8360   25.3617   40.5669 O   0  0  0  0  0  0  0  0  0  0  0  0
    9.5028   24.7211   39.9074 H   0  0  0  0  0  0  0  0  0  0  0  0
   13.5596   31.7654   40.6421 C   0  0  0  0  0  0  0  0  0  0  0  0
   14.6826   32.5480   41.3577 C   0  0  0  0  0  0  0  0  0  0  0  0
   15.1272   31.9236   42.6256 N   0  0  0  0  0  0  0  0  0  0  0  0
   14.4747   30.8470   43.2097 C   0  0  0  0  0  0  0  0  0  0  0  0
   13.4013   30.2527   42.6709 C   0  0  0  0  0  0  0  0  0  0  0  0
   12.8386   30.6653   41.3967 C   0  0  0  0  0  0  0  0  0  0  0  0
   11.7181   30.0618   40.9554 C   0  0  0  0  0  0  0  0  0  0  0  0
   15.4125   32.6449   43.3026 H   0  0  0  0  0  0  0  0  0  0  0  0
   14.9584   30.2946   44.5272 C   0  0  0  0  0  0  0  0  0  0  0  0
   14.2485   29.7804   45.3791 O   0  0  0  0  0  0  0  0  0  0  0  0
   16.2994   30.4095   44.6327 O   0  0  0  0  0  0  0  0  0  0  0  0
   16.6781   30.6982   43.7785 H   0  0  0  0  0  0  0  0  0  0  0  0
   14.3388   34.0256   41.6351 C   0  0  0  0  0  0  0  0  0  0  0  0
   14.5151   34.5341   42.7390 O   0  0  0  0  0  0  0  0  0  0  0  0
   13.9461   34.7640   40.5781 O   0  0  0  0  0  0  0  0  0  0  0  0
   13.8260   34.3242   39.7150 H   0  0  0  0  0  0  0  0  0  0  0  0
    9.2922   31.8881   37.7365 C   0  0  0  0  0  0  0  0  0  0  0  0
    8.4778   32.5633   38.4254 O   0  0  0  0  0  0  0  0  0  0  0  0
   10.1914   32.2759   36.9465 O   0  0  0  0  0  0  0  0  0  0  0  0
    7.1053   25.3041   40.1107 O   0  0  0  0  0  0  0  0  0  0  0  0
    5.6586   25.2754   39.9133 C   0  0  0  0  0  0  0  0  0  0  0  0
    5.2153   23.8772   39.4060 C   0  0  0  0  0  0  0  0  0  0  0  0
    4.8613   22.9327   40.5597 C   0  0  0  0  0  0  0  0  0  0  0  0
    3.8792   23.5922   41.5301 C   0  0  0  0  0  0  0  0  0  0  0  0
    4.3096   25.0051   41.9607 C   0  0  0  0  0  0  0  0  0  0  0  0
    4.7755   25.8379   40.8890 O   0  0  0  0  0  0  0  0  0  0  0  0
    2.5861   23.5860   40.8981 O   0  0  0  0  0  0  0  0  0  0  0  0
    4.2854   21.7144   40.0602 O   0  0  0  0  0  0  0  0  0  0  0  0
    6.2017   23.2975   38.5399 O   0  0  0  0  0  0  0  0  0  0  0  0
    2.5264   24.3427   40.2864 H   0  0  0  0  0  0  0  0  0  0  0  0
    3.3142   21.8306   40.0975 H   0  0  0  0  0  0  0  0  0  0  0  0
    7.0458   23.2605   39.0200 H   0  0  0  0  0  0  0  0  0  0  0  0
    3.1474   25.7312   42.6784 C   0  0  0  0  0  0  0  0  0  0  0  0
    2.4368   24.8782   43.5751 O   0  0  0  0  0  0  0  0  0  0  0  0
    2.5314   23.9609   43.2758 H   0  0  0  0  0  0  0  0  0  0  0  0
 13 14  1  0  0  0
 14 15  1  0  0  0
 15 16  1  0  0  0
 16 17  2  0  0  0
 17 18  1  0  0  0
 13 18  1  0  0  0
 18 19  2  0  0  0
 19  1  1  0  0  0
  1  2  2  0  0  0
  2  3  1  0  0  0
  3  4  1  0  0  0
  4  5  1  0  0  0
  5  6  2  0  0  0
  6  7  1  0  0  0
  7  8  2  0  0  0
  8  9  1  0  0  0
  9 10  2  0  0  0
  5 10  1  0  0  0
  2 10  1  0  0  0
  8 11  1  0  0  0
  7 32  1  0  0  0
 32 33  1  0  0  0
 33 34  1  0  0  0
 34 35  1  0  0  0
 35 36  1  0  0  0
 36 37  1  0  0  0
 37 38  1  0  0  0
 33 38  1  0  0  0
 37 45  1  0  0  0
 45 46  1  0  0  0
 36 39  1  0  0  0
 35 40  1  0  0  0
 34 41  1  0  0  0
  3 29  1  0  0  0
 29 30  2  0  0  0
 29 31  1  0  0  0
 16 21  1  0  0  0
 21 22  2  0  0  0
 21 23  1  0  0  0
 14 25  1  0  0  0
 25 26  2  0  0  0
 25 27  1  0  0  0
 15 20  1  0  0  0
 11 12  1  0  0  0
 46 47  1  0  0  0
 39 42  1  0  0  0
 40 43  1  0  0  0
 41 44  1  0  0  0
 23 24  1  0  0  0
 27 28  1  0  0  0
M  CHG 1   2   1
M  CHG 1  31  -1
M  END
> <minimizedAffinity>
-10.90167

$$$$
mol_1


 53 59  0  0  0  0  0  0  0  0999 V2000
    4.7507   29.3954   41.4518 C   0  0  0  0  0  0  0  0  0  0  0  0
    4.5880   28.9108   40.0789 N   0  0  0  0  0  0  0  0  0  0  0  0
    3.4655   27.9541   40.0413 C   0  0  0  0  0  0  0  0  0  0  0  0
    3.6183   26.8339   39.0163 C   0  0  0  0  0  0  0  0  0  0  0  0
    4.8994   26.0998   39.3418 C   0  0  0  0  0  0  0  0  0  0  0  0
    6.0500   26.9115   39.5368 C   0  0  0  0  0  0  0  0  0  0  0  0
    5.8390   28.4187   39.4085 C   0  0  0  0  0  0  0  0  0  0  0  0
    7.0805   29.2735   39.7313 C   0  0  0  0  0  0  0  0  0  0  0  0
    8.4264   28.6173   39.5321 C   0  0  0  0  0  0  0  0  0  0  0  0
    9.5755   29.4495   39.4493 C   0  0  0  0  0  0  0  0  0  0  0  0
   10.8285   28.9087   39.7659 C   0  0  0  0  0  0  0  0  0  0  0  0
   10.9947   27.5353   39.7766 C   0  0  0  0  0  0  0  0  0  0  0  0
    9.8613   26.7174   39.6890 C   0  0  0  0  0  0  0  0  0  0  0  0
    8.5437   27.2166   39.6765 C   0  0  0  0  0  0  0  0  0  0  0  0
    7.3239   26.3349   39.7453 C   0  0  0  0  0  0  0  0  0  0  0  0
    7.3490   24.9189   39.9536 C   0  0  0  0  0  0  0  0  0  0  0  0
    6.1928   24.1028   39.7934 C   0  0  0  0  0  0  0  0  0  0  0  0
    4.9850   24.7101   39.4421 C   0  0  0  0  0  0  0  0  0  0  0  0
    3.8642   23.9603   39.2171 O   0  0  0  0  0  0  0  0  0  0  0  0
   11.8766   29.7117   40.1350 O   0  0  0  0  0  0  0  0  0  0  0  0
    3.1370   24.3560   39.7236 H   0  0  0  0  0  0  0  0  0  0  0  0
   11.5174   30.5971   40.3141 H   0  0  0  0  0  0  0  0  0  0  0  0
    6.3718   22.7634   40.0292 O   0  0  0  0  0  0  0  0  0  0  0  0
    6.6946   21.8815   38.9680 C   0  0  0  0  0  0  0  0  0  0  0  0
    8.5053   24.3892   40.4980 O   0  0  0  0  0  0  0  0  0  0  0  0
    8.5480   24.2673   41.9186 C   0  0  0  0  0  0  0  0  0  0  0  0
   12.1707   26.8428   39.9094 O   0  0  0  0  0  0  0  0  0  0  0  0
   12.5942   26.5583   41.2377 C   0  0  0  0  0  0  0  0  0  0  0  0
    9.3557   30.7793   39.1219 O   0  0  0  0  0  0  0  0  0  0  0  0
    9.8554   31.3186   37.9505 C   0  0  0  0  0  0  0  0  0  0  0  0
    9.5893   30.8551   36.6620 C   0  0  0  0  0  0  0  0  0  0  0  0
   10.4654   31.1735   35.6183 C   0  0  0  0  0  0  0  0  0  0  0  0
   11.5427   32.0427   35.8308 C   0  0  0  0  0  0  0  0  0  0  0  0
   11.5790   32.7458   37.0392 C   0  0  0  0  0  0  0  0  0  0  0  0
   10.7736   32.3520   38.1115 C   0  0  0  0  0  0  0  0  0  0  0  0
   12.6349   32.1699   34.7844 C   0  0  0  0  0  0  0  0  0  0  0  0
   13.5490   30.9221   34.4582 C   0  0  0  0  0  0  0  0  0  0  0  0
   13.5173   30.5874   32.9728 C   0  0  0  0  0  0  0  0  0  0  0  0
   12.3768   29.9794   32.4153 C   0  0  0  0  0  0  0  0  0  0  0  0
   12.2569   29.7653   31.0345 C   0  0  0  0  0  0  0  0  0  0  0  0
   13.2623   30.2443   30.1852 C   0  0  0  0  0  0  0  0  0  0  0  0
   14.4197   30.8062   30.7593 C   0  0  0  0  0  0  0  0  0  0  0  0
   14.5840   30.9454   32.1398 C   0  0  0  0  0  0  0  0  0  0  0  0
   15.8801   31.4493   32.7238 C   0  0  0  0  0  0  0  0  0  0  0  0
   15.8668   31.7025   34.2419 C   0  0  0  0  0  0  0  0  0  0  0  0
   14.9299   30.8540   34.9803 N   0  0  0  0  0  0  0  0  0  0  0  0
   15.0255   31.0706   36.4170 C   0  0  0  0  0  0  0  0  0  0  0  0
   15.4155   31.2669   29.9306 O   0  0  0  0  0  0  0  0  0  0  0  0
   15.0740   31.1149   29.0273 H   0  0  0  0  0  0  0  0  0  0  0  0
   13.3033   30.2331   28.8110 O   0  0  0  0  0  0  0  0  0  0  0  0
   13.7051   29.0374   28.1580 C   0  0  0  0  0  0  0  0  0  0  0  0
   11.1499   29.1567   30.5042 O   0  0  0  0  0  0  0  0  0  0  0  0
   11.1758   27.7310   30.4909 C   0  0  0  0  0  0  0  0  0  0  0  0
  1  2  1  0  0  0
  2  3  1  0  0  0
  3  4  1  0  0  0
  4  5  1  0  0  0
  5  6  2  0  0  0
  6  7  1  0  0  0
  2  7  1  0  0  0
  7  8  1  0  0  0
  8  9  1  0  0  0
  9 10  2  0  0  0
 10 11  1  0  0  0
 11 12  2  0  0  0
 12 13  1  0  0  0
 13 14  2  0  0  0
  9 14  1  0  0  0
 14 15  1  0  0  0
  6 15  1  0  0  0
 15 16  2  0  0  0
 16 17  1  0  0  0
 17 18  2  0  0  0
  5 18  1  0  0  0
 18 19  1  0  0  0
 17 23  1  0  0  0
 23 24  1  0  0  0
 16 25  1  0  0  0
 25 26  1  0  0  0
 12 27  1  0  0  0
 27 28  1  0  0  0
 11 20  1  0  0  0
 10 29  1  0  0  0
 29 30  1  0  0  0
 30 31  2  0  0  0
 31 32  1  0  0  0
 32 33  2  0  0  0
 33 34  1  0  0  0
 34 35  2  0  0  0
 30 35  1  0  0  0
 33 36  1  0  0  0
 36 37  1  0  0  0
 37 38  1  0  0  0
 38 39  2  0  0  0
 39 40  1  0  0  0
 40 41  2  0  0  0
 41 42  1  0  0  0
 42 43  2  0  0  0
 38 43  1  0  0  0
 43 44  1  0  0  0
 44 45  1  0  0  0
 45 46  1  0  0  0
 37 46  1  0  0  0
 46 47  1  0  0  0
 42 48  1  0  0  0
 41 50  1  0  0  0
 50 51  1  0  0  0
 40 52  1  0  0  0
 52 53  1  0  0  0
 19 21  1  0  0  0
 20 22  1  0  0  0
 48 49  1  0  0  0
M  END
> <minimizedAffinity>
-10.00183

$$$$
mol_2


 56 61  0  0  0  0  0  0  0  0999 V2000
    6.8026   27.8618   42.4367 C   0  0  0  0  0  0  0  0  0  0  0  0
    7.4428   26.8152   43.0918 C   0  0  0  0  0  0  0  0  0  0  0  0
    6.8245   26.1870   44.1766 C   0  0  0  0  0  0  0  0  0  0  0  0
    5.6278   26.7266   44.6949 C   0  0  0  0  0  0  0  0  0  0  0  0
    4.9678   27.7731   44.0454 C   0  0  0  0  0  0  0  0  0  0  0  0
    5.5517   28.3071   42.8987 C   0  0  0  0  0  0  0  0  0  0  0  0
    5.0360   26.1768   45.8071 O   0  0  0  0  0  0  0  0  0  0  0  0
    5.7233   25.7078   46.3106 H   0  0  0  0  0  0  0  0  0  0  0  0
    7.2284   24.8099   44.4646 C   0  0  0  0  0  0  0  0  0  0  0  0
    7.5731   24.2941   45.7162 C   0  0  0  0  0  0  0  0  0  0  0  0
    8.0094   22.9639   45.8385 C   0  0  0  0  0  0  0  0  0  0  0  0
    8.0209   22.1382   44.7045 C   0  0  0  0  0  0  0  0  0  0  0  0
    7.6511   22.6329   43.4453 C   0  0  0  0  0  0  0  0  0  0  0  0
    7.3400   23.9793   43.3370 C   0  0  0  0  0  0  0  0  0  0  0  0
    7.5177   25.0725   46.8442 O   0  0  0  0  0  0  0  0  0  0  0  0
    7.1767   25.9511   46.6117 H   0  0  0  0  0  0  0  0  0  0  0  0
    8.3897   22.5610   47.0933 O   0  0  0  0  0  0  0  0  0  0  0  0
    9.7516   22.1969   47.2731 C   0  0  0  0  0  0  0  0  0  0  0  0
    7.6345   21.7489   42.2315 C   0  0  0  0  0  0  0  0  0  0  0  0
    6.2878   21.4140   41.5524 C   0  0  0  0  0  0  0  0  0  0  0  0
    5.5907   22.2494   40.4607 C   0  0  0  0  0  0  0  0  0  0  0  0
    5.4676   21.2746   39.2867 C   0  0  0  0  0  0  0  0  0  0  0  0
    5.7275   19.9638   39.7672 O   0  0  0  0  0  0  0  0  0  0  0  0
    6.3032   20.0126   40.9917 C   0  0  0  0  0  0  0  0  0  0  0  0
    6.7309   19.0264   41.5718 O   0  0  0  0  0  0  0  0  0  0  0  0
    6.0975   23.5936   39.9112 C   0  0  0  0  0  0  0  0  0  0  0  0
    5.2878   24.8570   40.0228 C   0  0  0  0  0  0  0  0  0  0  0  0
    4.1675   24.8540   40.8717 C   0  0  0  0  0  0  0  0  0  0  0  0
    3.2675   25.9319   40.9321 C   0  0  0  0  0  0  0  0  0  0  0  0
    3.4725   27.0396   40.0962 C   0  0  0  0  0  0  0  0  0  0  0  0
    4.6060   27.0531   39.2720 C   0  0  0  0  0  0  0  0  0  0  0  0
    5.5190   25.9958   39.2674 C   0  0  0  0  0  0  0  0  0  0  0  0
    2.5763   28.0732   40.1354 O   0  0  0  0  0  0  0  0  0  0  0  0
    3.0825   29.3979   40.0359 C   0  0  0  0  0  0  0  0  0  0  0  0
    2.2735   25.7210   41.8525 O   0  0  0  0  0  0  0  0  0  0  0  0
    2.6026   25.0988   43.0845 C   0  0  0  0  0  0  0  0  0  0  0  0
    3.7528   28.1509   44.5541 O   0  0  0  0  0  0  0  0  0  0  0  0
    2.7479   28.5193   43.6176 C   0  0  0  0  0  0  0  0  0  0  0  0
    7.3511   28.3797   41.1390 C   0  0  0  0  0  0  0  0  0  0  0  0
    9.3856   29.9315   41.1971 C   0  0  0  0  0  0  0  0  0  0  0  0
    9.7309   31.1377   40.3489 C   0  0  0  0  0  0  0  0  0  0  0  0
    8.6107   31.3967   39.5113 O   0  0  0  0  0  0  0  0  0  0  0  0
    7.5259   30.6687   39.9007 C   0  0  0  0  0  0  0  0  0  0  0  0
    6.4506   30.7663   39.3424 O   0  0  0  0  0  0  0  0  0  0  0  0
    7.8572   29.8209   41.1085 C   0  0  0  0  0  0  0  0  0  0  0  0
   10.2676   28.6944   40.8864 C   0  0  0  0  0  0  0  0  0  0  0  0
   11.0701   25.7048   43.9530 C   0  0  0  0  0  0  0  0  0  0  0  0
   11.0918   27.0729   44.2469 C   0  0  0  0  0  0  0  0  0  0  0  0
   10.8287   27.9999   43.2222 C   0  0  0  0  0  0  0  0  0  0  0  0
   10.5730   27.6054   41.8960 C   0  0  0  0  0  0  0  0  0  0  0  0
   10.5810   26.2382   41.6299 C   0  0  0  0  0  0  0  0  0  0  0  0
   10.7917   25.3018   42.6452 C   0  0  0  0  0  0  0  0  0  0  0  0
   11.6107   23.4823   44.5003 C   0  0  0  0  0  0  0  0  0  0  0  0
   11.2385   24.7829   44.9522 O   0  0  0  0  0  0  0  0  0  0  0  0
   11.3307   27.6695   45.4576 O   0  0  0  0  0  0  0  0  0  0  0  0
   12.4619   28.5248   45.5513 C   0  0  0  0  0  0  0  0  0  0  0  0
 53 54  1  0  0  0
 54 47  1  0  0  0
 47 48  2  0  0  0
 48 49  1  0  0  0
 49 50  2  0  0  0
 50 51  1  0  0  0
 51 52  2  0  0  0
 47 52  1  0  0  0
 50 46  1  0  0  0
 46 40  1  0  0  0
 40 41  1  0  0  0
 41 42  1  0  0  0
 42 43  1  0  0  0
 43 44  2  0  0  0
 43 45  1  0  0  0
 40 45  1  0  0  0
 45 39  1  0  0  0
 39  1  1  0  0  0
  1  2  2  0  0  0
  2  3  1  0  0  0
  3  4  2  0  0  0
  4  5  1  0  0  0
  5  6  2  0  0  0
  1  6  1  0  0  0
  5 37  1  0  0  0
 37 38  1  0  0  0
  4  7  1  0  0  0
  3  9  1  0  0  0
  9 10  2  0  0  0
 10 11  1  0  0  0
 11 12  2  0  0  0
 12 13  1  0  0  0
 13 14  2  0  0  0
  9 14  1  0  0  0
 13 19  1  0  0  0
 19 20  1  0  0  0
 20 21  1  0  0  0
 21 22  1  0  0  0
 22 23  1  0  0  0
 23 24  1  0  0  0
 20 24  1  0  0  0
 24 25  2  0  0  0
 21 26  1  0  0  0
 26 27  1  0  0  0
 27 28  2  0  0  0
 28 29  1  0  0  0
 29 30  2  0  0  0
 30 31  1  0  0  0
 31 32  2  0  0  0
 27 32  1  0  0  0
 30 33  1  0  0  0
 33 34  1  0  0  0
 29 35  1  0  0  0
 35 36  1  0  0  0
 11 17  1  0  0  0
 17 18  1  0  0  0
 10 15  1  0  0  0
 48 55  1  0  0  0
 55 56  1  0  0  0
  7  8  1  0  0  0
 15 16  1  0  0  0
M  END
> <minimizedAffinity>
-8.61504

$$$$
mol_3


 49 55  0  0  0  0  0  0  0  0999 V2000
   12.3232   32.6748   31.3475 C   0  0  0  0  0  0  0  0  0  0  0  0
   12.2268   31.2676   31.7347 N   0  0  0  0  0  0  0  0  0  0  0  0
   10.9343   30.7312   31.2514 C   0  0  0  0  0  0  0  0  0  0  0  0
   10.9492   29.2774   30.7845 C   0  0  0  0  0  0  0  0  0  0  0  0
   12.0392   29.1395   29.7575 C   0  0  0  0  0  0  0  0  0  0  0  0
   11.8290   28.5100   28.5363 C   0  0  0  0  0  0  0  0  0  0  0  0
   12.8507   28.4815   27.5864 C   0  0  0  0  0  0  0  0  0  0  0  0
   14.1462   28.9408   27.9356 C   0  0  0  0  0  0  0  0  0  0  0  0
   14.4157   29.4562   29.2345 C   0  0  0  0  0  0  0  0  0  0  0  0
   13.2987   29.6792   30.0747 C   0  0  0  0  0  0  0  0  0  0  0  0
   13.4242   30.4313   31.3968 C   0  0  0  0  0  0  0  0  0  0  0  0
   14.7684   31.2031   31.4477 C   0  0  0  0  0  0  0  0  0  0  0  0
   15.9460   30.3356   31.0559 C   0  0  0  0  0  0  0  0  0  0  0  0
   17.1757   30.2710   31.7534 C   0  0  0  0  0  0  0  0  0  0  0  0
   18.3014   29.6965   31.1352 C   0  0  0  0  0  0  0  0  0  0  0  0
   18.2063   29.1243   29.8750 C   0  0  0  0  0  0  0  0  0  0  0  0
   16.9448   29.0470   29.2748 C   0  0  0  0  0  0  0  0  0  0  0  0
   15.7919   29.6445   29.8219 C   0  0  0  0  0  0  0  0  0  0  0  0
   19.4951   29.7021   31.8168 O   0  0  0  0  0  0  0  0  0  0  0  0
   19.3199   30.1318   32.6746 H   0  0  0  0  0  0  0  0  0  0  0  0
   19.2110   28.5599   29.1359 O   0  0  0  0  0  0  0  0  0  0  0  0
   19.0629   28.5961   27.7209 C   0  0  0  0  0  0  0  0  0  0  0  0
   15.1649   29.0627   27.0154 O   0  0  0  0  0  0  0  0  0  0  0  0
   15.1926   30.2480   26.2285 C   0  0  0  0  0  0  0  0  0  0  0  0
   12.6522   27.9949   26.3192 O   0  0  0  0  0  0  0  0  0  0  0  0
   11.3639   28.1780   25.7452 C   0  0  0  0  0  0  0  0  0  0  0  0
   17.4850   30.7788   33.0017 O   0  0  0  0  0  0  0  0  0  0  0  0
   16.8989   30.3075   34.1424 C   0  0  0  0  0  0  0  0  0  0  0  0
   16.9232   28.9878   34.5807 C   0  0  0  0  0  0  0  0  0  0  0  0
   15.9462   28.5738   35.4872 C   0  0  0  0  0  0  0  0  0  0  0  0
   15.0220   29.4885   36.0170 C   0  0  0  0  0  0  0  0  0  0  0  0
   15.2776   30.8446   35.8360 C   0  0  0  0  0  0  0  0  0  0  0  0
   16.1792   31.2531   34.8609 C   0  0  0  0  0  0  0  0  0  0  0  0
   13.7672   28.9466   36.6642 C   0  0  0  0  0  0  0  0  0  0  0  0
   12.4637   29.8144   36.8552 C   0  0  0  0  0  0  0  0  0  0  0  0
   12.7313   31.0332   37.7310 C   0  0  0  0  0  0  0  0  0  0  0  0
   13.2720   30.8414   39.0204 C   0  0  0  0  0  0  0  0  0  0  0  0
   13.6230   31.9216   39.8225 C   0  0  0  0  0  0  0  0  0  0  0  0
   13.4030   33.2097   39.3340 C   0  0  0  0  0  0  0  0  0  0  0  0
   12.8236   33.4275   38.0887 C   0  0  0  0  0  0  0  0  0  0  0  0
   12.4759   32.3371   37.2794 C   0  0  0  0  0  0  0  0  0  0  0  0
   11.7593   32.5717   35.9775 C   0  0  0  0  0  0  0  0  0  0  0  0
   11.7341   31.3617   35.0372 C   0  0  0  0  0  0  0  0  0  0  0  0
   11.5524   30.0772   35.7134 N   0  0  0  0  0  0  0  0  0  0  0  0
   11.4997   28.9917   34.7426 C   0  0  0  0  0  0  0  0  0  0  0  0
   13.7484   34.2976   40.0889 O   0  0  0  0  0  0  0  0  0  0  0  0
   14.1307   33.9213   40.9053 H   0  0  0  0  0  0  0  0  0  0  0  0
   14.1792   31.8439   41.0734 O   0  0  0  0  0  0  0  0  0  0  0  0
   13.8017   30.7190   41.8625 C   0  0  0  0  0  0  0  0  0  0  0  0
  1  2  1  0  0  0
  2  3  1  0  0  0
  3  4  1  0  0  0
  4  5  1  0  0  0
  5  6  2  0  0  0
  6  7  1  0  0  0
  7  8  2  0  0  0
  8  9  1  0  0  0
  9 10  2  0  0  0
  5 10  1  0  0  0
 10 11  1  0  0  0
  2 11  1  0  0  0
 11 12  1  0  0  0
 12 13  1  0  0  0
 13 14  2  0  0  0
 14 15  1  0  0  0
 15 16  2  0  0  0
 16 17  1  0  0  0
 17 18  2  0  0  0
 13 18  1  0  0  0
  9 18  1  0  0  0
 16 21  1  0  0  0
 21 22  1  0  0  0
 15 19  1  0  0  0
 14 27  1  0  0  0
 27 28  1  0  0  0
 28 29  2  0  0  0
 29 30  1  0  0  0
 30 31  2  0  0  0
 31 32  1  0  0  0
 32 33  2  0  0  0
 28 33  1  0  0  0
 31 34  1  0  0  0
 34 35  1  0  0  0
 35 36  1  0  0  0
 36 37  2  0  0  0
 37 38  1  0  0  0
 38 39  2  0  0  0
 39 40  1  0  0  0
 40 41  2  0  0  0
 36 41  1  0  0  0
 41 42  1  0  0  0
 42 43  1  0  0  0
 43 44  1  0  0  0
 35 44  1  0  0  0
 44 45  1  0  0  0
 39 46  1  0  0  0
 38 48  1  0  0  0
 48 49  1  0  0  0
  8 23  1  0  0  0
 23 24  1  0  0  0
  7 25  1  0  0  0
 25 26  1  0  0  0
 19 20  1  0  0  0
 46 47  1  0  0  0
M  END
> <minimizedAffinity>
-10.04795

$$$$
mol_4


 39 41  0  0  0  0  0  0  0  0999 V2000
   16.4082   29.2379   30.3158 O   0  0  0  0  0  0  0  0  0  0  0  0
   17.9208   28.9332   31.0382 P   0  0  0  0  0  0  0  0  0  0  0  0
   18.1116   27.4136   31.1075 O   0  0  0  0  0  0  0  0  0  0  0  0
   17.1087   28.8480   32.6200 N   0  0  0  0  0  0  0  0  0  0  0  0
   16.8420   27.9287   32.9548 H   0  0  0  0  0  0  0  0  0  0  0  0
   17.4664   29.8775   33.5938 C   0  0  0  0  0  0  0  0  0  0  0  0
   18.9282   30.2874   33.4971 C   0  0  0  0  0  0  0  0  0  0  0  0
   17.1515   29.4218   35.0194 C   0  0  0  0  0  0  0  0  0  0  0  0
   17.2795   28.2805   35.4424 O   0  0  0  0  0  0  0  0  0  0  0  0
   16.7315   30.4951   35.7523 O   0  0  0  0  0  0  0  0  0  0  0  0
   14.5656   30.5835   36.7393 C   0  0  0  0  0  0  0  0  0  0  0  0
   15.3912   30.9659   35.5141 C   0  0  0  0  0  0  0  0  0  0  0  0
   15.3850   32.4786   35.3253 C   0  0  0  0  0  0  0  0  0  0  0  0
   18.7101   29.0160   29.5010 O   0  0  0  0  0  0  0  0  0  0  0  0
   18.2980   28.1560   28.5145 C   0  0  0  0  0  0  0  0  0  0  0  0
   18.8016   26.8625   28.3859 C   0  0  0  0  0  0  0  0  0  0  0  0
   18.4161   26.0795   27.2961 C   0  0  0  0  0  0  0  0  0  0  0  0
   17.5200   26.5839   26.3529 C   0  0  0  0  0  0  0  0  0  0  0  0
   16.9924   27.8659   26.5066 C   0  0  0  0  0  0  0  0  0  0  0  0
   17.3764   28.6506   27.5937 C   0  0  0  0  0  0  0  0  0  0  0  0
   15.9432   30.5937   30.2129 C   0  0  0  0  0  0  0  0  0  0  0  0
   14.5241   30.9033   30.7079 C   0  0  0  0  0  0  0  0  0  0  0  0
   13.5145   29.9628   30.0226 C   0  0  0  0  0  0  0  0  0  0  0  0
   12.3619   29.9391   31.0065 C   0  0  0  0  0  0  0  0  0  0  0  0
   13.1168   29.9389   32.3456 C   0  0  0  0  0  0  0  0  0  0  0  0
   14.3808   30.6332   32.1331 O   0  0  0  0  0  0  0  0  0  0  0  0
   11.3927   28.7829   30.8218 C   0  0  0  0  0  0  0  0  0  0  0  0
   11.6641   31.1045   30.8518 F   0  0  0  0  0  0  0  0  0  0  0  0
   14.0304   28.6436   29.7947 O   0  0  0  0  0  0  0  0  0  0  0  0
   14.4576   28.3015   30.6011 H   0  0  0  0  0  0  0  0  0  0  0  0
   12.3788   30.5342   33.4602 N   0  0  0  0  0  0  0  0  0  0  0  0
   12.1896   31.9006   33.5225 C   0  0  0  0  0  0  0  0  0  0  0  0
   11.4857   32.4763   34.4997 C   0  0  0  0  0  0  0  0  0  0  0  0
   10.9034   31.6278   35.5479 C   0  0  0  0  0  0  0  0  0  0  0  0
   10.2711   32.1160   36.4811 O   0  0  0  0  0  0  0  0  0  0  0  0
   11.1076   30.2877   35.4082 N   0  0  0  0  0  0  0  0  0  0  0  0
   11.8061   29.6799   34.3953 C   0  0  0  0  0  0  0  0  0  0  0  0
   11.8897   28.4550   34.3476 O   0  0  0  0  0  0  0  0  0  0  0  0
   10.7005   29.6873   36.1084 H   0  0  0  0  0  0  0  0  0  0  0  0
 11 12  1  0  0  0
 12 13  1  0  0  0
 12 10  1  0  0  0
 10  8  1  0  0  0
  8  9  2  0  0  0
  8  6  1  0  0  0
  6  7  1  0  0  0
  6  4  1  0  0  0
  4  2  1  0  0  0
  2  3  2  0  0  0
  2  1  1  0  0  0
  1 21  1  0  0  0
 21 22  1  0  0  0
 22 23  1  0  0  0
 23 24  1  0  0  0
 24 25  1  0  0  0
 25 26  1  0  0  0
 22 26  1  0  0  0
 25 31  1  0  0  0
 31 32  1  0  0  0
 32 33  2  0  0  0
 33 34  1  0  0  0
 34 35  2  0  0  0
 34 36  1  0  0  0
 36 37  1  0  0  0
 31 37  1  0  0  0
 37 38  2  0  0  0
 24 27  1  0  0  0
 24 28  1  0  0  0
 23 29  1  0  0  0
  2 14  1  0  0  0
 14 15  1  0  0  0
 15 16  2  0  0  0
 16 17  1  0  0  0
 17 18  2  0  0  0
 18 19  1  0  0  0
 19 20  2  0  0  0
 15 20  1  0  0  0
  4  5  1  0  0  0
 36 39  1  0  0  0
 29 30  1  0  0  0
M  END
> <minimizedAffinity>
-9.31175

$$$$
