mol_0


 47 50  0  0  0  0  0  0  0  0999 V2000
   11.0631   30.4067   39.7675 C   0  0  0  0  0  0  0  0  0  0  0  0
    9.9612   29.9523   39.2715 N   0  0  0  0  0  0  0  0  0  0  0  0
    9.2510   30.4050   38.0214 C   0  0  0  0  0  0  0  0  0  0  0  0
    7.8237   29.8424   38.1767 C   0  0  0  0  0  0  0  0  0  0  0  0
    8.0577   28.6734   39.0946 C   0  0  0  0  0  0  0  0  0  0  0  0
    7.2360   27.5699   39.3500 C   0  0  0  0  0  0  0  0  0  0  0  0
    7.7726   26.5008   40.0776 C   0  0  0  0  0  0  0  0  0  0  0  0
    9.1213   26.5552   40.4312 C   0  0  0  0  0  0  0  0  0  0  0  0
    9.8807   27.7066   40.3453 C   0  0  0  0  0  0  0  0  0  0  0  0
    9.3244   28.7711   39.6740 C   0  0  0  0  0  0  0  0  0  0  0  0
    9.8180   25.4181   40.7109 O   0  0  0  0  0  0  0  0  0  0  0  0
    9.5148   24.7683   40.0461 H   0  0  0  0  0  0  0  0  0  0  0  0
   13.5950   31.6853   40.7601 C   0  0  0  0  0  0  0  0  0  0  0  0
   14.7674   32.4113   41.4558 C   0  0  0  0  0  0  0  0  0  0  0  0
   15.1469   31.8149   42.7579 N   0  0  0  0  0  0  0  0  0  0  0  0
   14.4054   30.8211   43.3811 C   0  0  0  0  0  0  0  0  0  0  0  0
   13.2951   30.2871   42.8540 C   0  0  0  0  0  0  0  0  0  0  0  0
   12.7813   30.6815   41.5536 C   0  0  0  0  0  0  0  0  0  0  0  0
   11.6222   30.1467   41.1236 C   0  0  0  0  0  0  0  0  0  0  0  0
   15.4800   32.5431   43.4051 H   0  0  0  0  0  0  0  0  0  0  0  0
   14.8289   30.2958   44.7300 C   0  0  0  0  0  0  0  0  0  0  0  0
   14.0751   29.8391   45.5769 O   0  0  0  0  0  0  0  0  0  0  0  0
   16.1699   30.3618   44.8715 O   0  0  0  0  0  0  0  0  0  0  0  0
   16.5840   30.6061   44.0199 H   0  0  0  0  0  0  0  0  0  0  0  0
   14.5371   33.9225   41.6593 C   0  0  0  0  0  0  0  0  0  0  0  0
   14.1430   34.6450   40.7476 O   0  0  0  0  0  0  0  0  0  0  0  0
   14.6758   34.3919   42.9151 O   0  0  0  0  0  0  0  0  0  0  0  0
   14.9826   33.7835   43.6141 H   0  0  0  0  0  0  0  0  0  0  0  0
    9.2755   31.9160   37.8155 C   0  0  0  0  0  0  0  0  0  0  0  0
    8.4632   32.5891   38.5090 O   0  0  0  0  0  0  0  0  0  0  0  0
   10.1627   32.3060   37.0131 O   0  0  0  0  0  0  0  0  0  0  0  0
    7.1042   25.3193   40.1685 O   0  0  0  0  0  0  0  0  0  0  0  0
    5.6606   25.2737   39.9526 C   0  0  0  0  0  0  0  0  0  0  0  0
    5.2403   23.8708   39.4389 C   0  0  0  0  0  0  0  0  0  0  0  0
    4.8828   22.9213   40.5874 C   0  0  0  0  0  0  0  0  0  0  0  0
    3.8807   23.5684   41.5455 C   0  0  0  0  0  0  0  0  0  0  0  0
    4.2889   24.9859   41.9825 C   0  0  0  0  0  0  0  0  0  0  0  0
    4.7585   25.8250   40.9173 O   0  0  0  0  0  0  0  0  0  0  0  0
    2.5960   23.5474   40.8970 O   0  0  0  0  0  0  0  0  0  0  0  0
    4.3278   21.6966   40.0798 O   0  0  0  0  0  0  0  0  0  0  0  0
    6.2445   23.3033   38.5851 O   0  0  0  0  0  0  0  0  0  0  0  0
    2.5352   24.3038   40.2852 H   0  0  0  0  0  0  0  0  0  0  0  0
    3.3549   21.8014   40.1048 H   0  0  0  0  0  0  0  0  0  0  0  0
    7.0828   23.2760   39.0760 H   0  0  0  0  0  0  0  0  0  0  0  0
    3.1092   25.6977   42.6857 C   0  0  0  0  0  0  0  0  0  0  0  0
    2.4108   24.8418   43.5893 O   0  0  0  0  0  0  0  0  0  0  0  0
    2.5249   23.9230   43.3016 H   0  0  0  0  0  0  0  0  0  0  0  0
 13 14  1  0  0  0
 14 15  1  0  0  0
 15 16  1  0  0  0
 16 17  2  0  0  0
 17 18  1  0  0  0
 13 18  1  0  0  0
 18 19  2  0  0  0
 19  1  1  0  0  0
  1  2  2  0  0  0
  2  3  1  0  0  0
  3  4  1  0  0  0
  4  5  1  0  0  0
  5  6  2  0  0  0
  6  7  1  0  0  0
  7  8  2  0  0  0
  8  9  1  0  0  0
  9 10  2  0  0  0
  5 10  1  0  0  0
  2 10  1  0  0  0
  8 11  1  0  0  0
  7 32  1  0  0  0
 32 33  1  0  0  0
 33 34  1  0  0  0
 34 35  1  0  0  0
 35 36  1  0  0  0
 36 37  1  0  0  0
 37 38  1  0  0  0
 33 38  1  0  0  0
 37 45  1  0  0  0
 45 46  1  0  0  0
 36 39  1  0  0  0
 35 40  1  0  0  0
 34 41  1  0  0  0
  3 29  1  0  0  0
 29 30  2  0  0  0
 29 31  1  0  0  0
 16 21  1  0  0  0
 21 22  2  0  0  0
 21 23  1  0  0  0
 14 25  1  0  0  0
 25 26  2  0  0  0
 25 27  1  0  0  0
 15 20  1  0  0  0
 11 12  1  0  0  0
 46 47  1  0  0  0
 39 42  1  0  0  0
 40 43  1  0  0  0
 41 44  1  0  0  0
 23 24  1  0  0  0
 27 28  1  0  0  0
M  CHG 1   2   1
M  CHG 1  31  -1
M  END
> <minimizedAffinity>
-10.87813

$$$$
mol_1


 53 59  0  0  0  0  0  0  0  0999 V2000
   11.8083   27.9740   30.6594 C   0  0  0  0  0  0  0  0  0  0  0  0
   12.0345   28.9710   29.6101 N   0  0  0  0  0  0  0  0  0  0  0  0
   12.1029   28.2834   28.3065 C   0  0  0  0  0  0  0  0  0  0  0  0
   13.0389   28.9345   27.2921 C   0  0  0  0  0  0  0  0  0  0  0  0
   14.4157   28.9778   27.9154 C   0  0  0  0  0  0  0  0  0  0  0  0
   14.4856   29.5005   29.2355 C   0  0  0  0  0  0  0  0  0  0  0  0
   13.1600   29.9345   29.8577 C   0  0  0  0  0  0  0  0  0  0  0  0
   13.2568   30.3950   31.3256 C   0  0  0  0  0  0  0  0  0  0  0  0
   14.5897   30.9428   31.7783 C   0  0  0  0  0  0  0  0  0  0  0  0
   14.6309   31.7124   32.9724 C   0  0  0  0  0  0  0  0  0  0  0  0
   15.8374   31.8043   33.6785 C   0  0  0  0  0  0  0  0  0  0  0  0
   17.0248   31.4905   33.0419 C   0  0  0  0  0  0  0  0  0  0  0  0
   16.9749   30.8796   31.7827 C   0  0  0  0  0  0  0  0  0  0  0  0
   15.7745   30.4852   31.1590 C   0  0  0  0  0  0  0  0  0  0  0  0
   15.7286   29.6854   29.8830 C   0  0  0  0  0  0  0  0  0  0  0  0
   16.8718   29.1301   29.2244 C   0  0  0  0  0  0  0  0  0  0  0  0
   16.8035   28.5736   27.9151 C   0  0  0  0  0  0  0  0  0  0  0  0
   15.5706   28.5484   27.2592 C   0  0  0  0  0  0  0  0  0  0  0  0
   15.4687   28.0808   25.9785 O   0  0  0  0  0  0  0  0  0  0  0  0
   15.8588   32.1310   35.0098 O   0  0  0  0  0  0  0  0  0  0  0  0
   14.7327   27.4487   25.9521 H   0  0  0  0  0  0  0  0  0  0  0  0
   14.9469   32.0679   35.3408 H   0  0  0  0  0  0  0  0  0  0  0  0
   17.9813   28.0782   27.4162 O   0  0  0  0  0  0  0  0  0  0  0  0
   18.1805   26.6807   27.2922 C   0  0  0  0  0  0  0  0  0  0  0  0
   18.0201   28.9870   29.9828 O   0  0  0  0  0  0  0  0  0  0  0  0
   18.1237   27.8035   30.7725 C   0  0  0  0  0  0  0  0  0  0  0  0
   18.2966   31.6696   33.5225 O   0  0  0  0  0  0  0  0  0  0  0  0
   19.2462   30.6605   33.1991 C   0  0  0  0  0  0  0  0  0  0  0  0
   13.4318   32.2680   33.3936 O   0  0  0  0  0  0  0  0  0  0  0  0
   12.6751   31.6678   34.3834 C   0  0  0  0  0  0  0  0  0  0  0  0
   12.7839   30.3410   34.8001 C   0  0  0  0  0  0  0  0  0  0  0  0
   11.7112   29.7345   35.4632 C   0  0  0  0  0  0  0  0  0  0  0  0
   10.5756   30.4766   35.8109 C   0  0  0  0  0  0  0  0  0  0  0  0
   10.6449   31.8671   35.6785 C   0  0  0  0  0  0  0  0  0  0  0  0
   11.6638   32.4562   34.9245 C   0  0  0  0  0  0  0  0  0  0  0  0
    9.3175   29.7673   36.2780 C   0  0  0  0  0  0  0  0  0  0  0  0
    8.9203   29.8138   37.8074 C   0  0  0  0  0  0  0  0  0  0  0  0
   10.1549   29.8804   38.6969 C   0  0  0  0  0  0  0  0  0  0  0  0
   10.9548   28.7357   38.8727 C   0  0  0  0  0  0  0  0  0  0  0  0
   12.1634   28.7836   39.5826 C   0  0  0  0  0  0  0  0  0  0  0  0
   12.6222   30.0195   40.0554 C   0  0  0  0  0  0  0  0  0  0  0  0
   11.7893   31.1472   39.9157 C   0  0  0  0  0  0  0  0  0  0  0  0
   10.5442   31.0900   39.2843 C   0  0  0  0  0  0  0  0  0  0  0  0
    9.6318   32.2904   39.2499 C   0  0  0  0  0  0  0  0  0  0  0  0
    8.3663   32.1342   38.3878 C   0  0  0  0  0  0  0  0  0  0  0  0
    7.8843   30.7562   38.2793 N   0  0  0  0  0  0  0  0  0  0  0  0
    6.6371   30.6798   37.5317 C   0  0  0  0  0  0  0  0  0  0  0  0
   12.2294   32.3607   40.3892 O   0  0  0  0  0  0  0  0  0  0  0  0
   13.1236   32.1786   40.7395 H   0  0  0  0  0  0  0  0  0  0  0  0
   13.8107   30.3119   40.6819 O   0  0  0  0  0  0  0  0  0  0  0  0
   13.9159   30.0666   42.0770 C   0  0  0  0  0  0  0  0  0  0  0  0
   12.9257   27.6596   39.7628 O   0  0  0  0  0  0  0  0  0  0  0  0
   12.5556   26.8324   40.8638 C   0  0  0  0  0  0  0  0  0  0  0  0
  1  2  1  0  0  0
  2  3  1  0  0  0
  3  4  1  0  0  0
  4  5  1  0  0  0
  5  6  2  0  0  0
  6  7  1  0  0  0
  2  7  1  0  0  0
  7  8  1  0  0  0
  8  9  1  0  0  0
  9 10  2  0  0  0
 10 11  1  0  0  0
 11 12  2  0  0  0
 12 13  1  0  0  0
 13 14  2  0  0  0
  9 14  1  0  0  0
 14 15  1  0  0  0
  6 15  1  0  0  0
 15 16  2  0  0  0
 16 17  1  0  0  0
 17 18  2  0  0  0
  5 18  1  0  0  0
 18 19  1  0  0  0
 17 23  1  0  0  0
 23 24  1  0  0  0
 16 25  1  0  0  0
 25 26  1  0  0  0
 12 27  1  0  0  0
 27 28  1  0  0  0
 11 20  1  0  0  0
 10 29  1  0  0  0
 29 30  1  0  0  0
 30 31  2  0  0  0
 31 32  1  0  0  0
 32 33  2  0  0  0
 33 34  1  0  0  0
 34 35  2  0  0  0
 30 35  1  0  0  0
 33 36  1  0  0  0
 36 37  1  0  0  0
 37 38  1  0  0  0
 38 39  2  0  0  0
 39 40  1  0  0  0
 40 41  2  0  0  0
 41 42  1  0  0  0
 42 43  2  0  0  0
 38 43  1  0  0  0
 43 44  1  0  0  0
 44 45  1  0  0  0
 45 46  1  0  0  0
 37 46  1  0  0  0
 46 47  1  0  0  0
 42 48  1  0  0  0
 41 50  1  0  0  0
 50 51  1  0  0  0
 40 52  1  0  0  0
 52 53  1  0  0  0
 19 21  1  0  0  0
 20 22  1  0  0  0
 48 49  1  0  0  0
M  END
> <minimizedAffinity>
-11.02379

$$$$
mol_2


 56 61  0  0  0  0  0  0  0  0999 V2000
    9.3725   25.3472   42.2899 C   0  0  0  0  0  0  0  0  0  0  0  0
   10.6358   25.7816   42.6768 C   0  0  0  0  0  0  0  0  0  0  0  0
   11.3848   26.5995   41.8262 C   0  0  0  0  0  0  0  0  0  0  0  0
   10.9166   26.8447   40.5175 C   0  0  0  0  0  0  0  0  0  0  0  0
    9.6472   26.4218   40.1146 C   0  0  0  0  0  0  0  0  0  0  0  0
    8.8746   25.7032   41.0243 C   0  0  0  0  0  0  0  0  0  0  0  0
   11.6664   27.5824   39.6326 O   0  0  0  0  0  0  0  0  0  0  0  0
   12.5963   27.5307   39.9127 H   0  0  0  0  0  0  0  0  0  0  0  0
   12.3939   27.4576   42.4490 C   0  0  0  0  0  0  0  0  0  0  0  0
   13.7693   27.4257   42.2072 C   0  0  0  0  0  0  0  0  0  0  0  0
   14.6352   28.2646   42.9291 C   0  0  0  0  0  0  0  0  0  0  0  0
   14.0970   29.1879   43.8378 C   0  0  0  0  0  0  0  0  0  0  0  0
   12.7156   29.2520   44.0718 C   0  0  0  0  0  0  0  0  0  0  0  0
   11.9005   28.3310   43.4326 C   0  0  0  0  0  0  0  0  0  0  0  0
   14.3078   26.5656   41.2843 O   0  0  0  0  0  0  0  0  0  0  0  0
   13.5934   26.0726   40.8496 H   0  0  0  0  0  0  0  0  0  0  0  0
   15.9752   28.1205   42.6743 O   0  0  0  0  0  0  0  0  0  0  0  0
   16.7701   29.2983   42.6945 C   0  0  0  0  0  0  0  0  0  0  0  0
   12.1288   30.2556   45.0225 C   0  0  0  0  0  0  0  0  0  0  0  0
   13.0076   31.4144   45.5435 C   0  0  0  0  0  0  0  0  0  0  0  0
   13.1772   32.7938   44.8771 C   0  0  0  0  0  0  0  0  0  0  0  0
   12.7118   33.7738   45.9572 C   0  0  0  0  0  0  0  0  0  0  0  0
   12.6340   33.0736   47.1902 O   0  0  0  0  0  0  0  0  0  0  0  0
   12.6745   31.7367   46.9801 C   0  0  0  0  0  0  0  0  0  0  0  0
   12.5075   30.9129   47.8664 O   0  0  0  0  0  0  0  0  0  0  0  0
   12.5420   33.2202   43.5429 C   0  0  0  0  0  0  0  0  0  0  0  0
   12.7615   32.4457   42.2715 C   0  0  0  0  0  0  0  0  0  0  0  0
   11.6675   31.7608   41.7148 C   0  0  0  0  0  0  0  0  0  0  0  0
   11.8031   30.8948   40.6162 C   0  0  0  0  0  0  0  0  0  0  0  0
   13.0774   30.6790   40.0707 C   0  0  0  0  0  0  0  0  0  0  0  0
   14.1619   31.3851   40.6086 C   0  0  0  0  0  0  0  0  0  0  0  0
   13.9972   32.2840   41.6652 C   0  0  0  0  0  0  0  0  0  0  0  0
   13.2097   29.8108   39.0211 O   0  0  0  0  0  0  0  0  0  0  0  0
   13.1302   30.3405   37.7043 C   0  0  0  0  0  0  0  0  0  0  0  0
   10.5995   30.3670   40.2257 O   0  0  0  0  0  0  0  0  0  0  0  0
    9.5335   30.3287   41.1612 C   0  0  0  0  0  0  0  0  0  0  0  0
    9.2312   26.8087   38.8676 O   0  0  0  0  0  0  0  0  0  0  0  0
    8.2108   27.7974   38.8060 C   0  0  0  0  0  0  0  0  0  0  0  0
    8.4765   24.6698   43.2856 C   0  0  0  0  0  0  0  0  0  0  0  0
    6.9560   26.3705   44.4458 C   0  0  0  0  0  0  0  0  0  0  0  0
    6.2887   26.3315   45.8047 C   0  0  0  0  0  0  0  0  0  0  0  0
    6.7593   25.1659   46.4705 O   0  0  0  0  0  0  0  0  0  0  0  0
    7.8144   24.6124   45.8078 C   0  0  0  0  0  0  0  0  0  0  0  0
    8.3926   23.6283   46.2254 O   0  0  0  0  0  0  0  0  0  0  0  0
    8.1553   25.4214   44.5762 C   0  0  0  0  0  0  0  0  0  0  0  0
    5.9589   26.1962   43.2710 C   0  0  0  0  0  0  0  0  0  0  0  0
    4.7912   29.2366   40.3765 C   0  0  0  0  0  0  0  0  0  0  0  0
    4.8527   27.8832   40.0258 C   0  0  0  0  0  0  0  0  0  0  0  0
    5.2376   26.9392   40.9949 C   0  0  0  0  0  0  0  0  0  0  0  0
    5.5962   27.3069   42.3049 C   0  0  0  0  0  0  0  0  0  0  0  0
    5.5475   28.6634   42.6171 C   0  0  0  0  0  0  0  0  0  0  0  0
    5.1202   29.6092   41.6816 C   0  0  0  0  0  0  0  0  0  0  0  0
    3.2019   30.9068   39.9118 C   0  0  0  0  0  0  0  0  0  0  0  0
    4.3369   30.1621   39.4744 O   0  0  0  0  0  0  0  0  0  0  0  0
    4.5617   27.3145   38.8130 O   0  0  0  0  0  0  0  0  0  0  0  0
    3.6754   26.2035   38.8096 C   0  0  0  0  0  0  0  0  0  0  0  0
 53 54  1  0  0  0
 54 47  1  0  0  0
 47 48  2  0  0  0
 48 49  1  0  0  0
 49 50  2  0  0  0
 50 51  1  0  0  0
 51 52  2  0  0  0
 47 52  1  0  0  0
 50 46  1  0  0  0
 46 40  1  0  0  0
 40 41  1  0  0  0
 41 42  1  0  0  0
 42 43  1  0  0  0
 43 44  2  0  0  0
 43 45  1  0  0  0
 40 45  1  0  0  0
 45 39  1  0  0  0
 39  1  1  0  0  0
  1  2  2  0  0  0
  2  3  1  0  0  0
  3  4  2  0  0  0
  4  5  1  0  0  0
  5  6  2  0  0  0
  1  6  1  0  0  0
  5 37  1  0  0  0
 37 38  1  0  0  0
  4  7  1  0  0  0
  3  9  1  0  0  0
  9 10  2  0  0  0
 10 11  1  0  0  0
 11 12  2  0  0  0
 12 13  1  0  0  0
 13 14  2  0  0  0
  9 14  1  0  0  0
 13 19  1  0  0  0
 19 20  1  0  0  0
 20 21  1  0  0  0
 21 22  1  0  0  0
 22 23  1  0  0  0
 23 24  1  0  0  0
 20 24  1  0  0  0
 24 25  2  0  0  0
 21 26  1  0  0  0
 26 27  1  0  0  0
 27 28  2  0  0  0
 28 29  1  0  0  0
 29 30  2  0  0  0
 30 31  1  0  0  0
 31 32  2  0  0  0
 27 32  1  0  0  0
 30 33  1  0  0  0
 33 34  1  0  0  0
 29 35  1  0  0  0
 35 36  1  0  0  0
 11 17  1  0  0  0
 17 18  1  0  0  0
 10 15  1  0  0  0
 48 55  1  0  0  0
 55 56  1  0  0  0
  7  8  1  0  0  0
 15 16  1  0  0  0
M  END
> <minimizedAffinity>
-9.12154

$$$$
mol_3


 49 55  0  0  0  0  0  0  0  0999 V2000
    5.0109   29.7769   39.0811 C   0  0  0  0  0  0  0  0  0  0  0  0
    5.1984   30.2670   40.4465 N   0  0  0  0  0  0  0  0  0  0  0  0
    3.8689   30.5346   41.0401 C   0  0  0  0  0  0  0  0  0  0  0  0
    3.7326   30.2352   42.5312 C   0  0  0  0  0  0  0  0  0  0  0  0
    4.1768   28.8158   42.7537 C   0  0  0  0  0  0  0  0  0  0  0  0
    3.4255   27.9139   43.4979 C   0  0  0  0  0  0  0  0  0  0  0  0
    3.8425   26.5867   43.6050 C   0  0  0  0  0  0  0  0  0  0  0  0
    5.1126   26.2077   43.1008 C   0  0  0  0  0  0  0  0  0  0  0  0
    5.9604   27.1558   42.4621 C   0  0  0  0  0  0  0  0  0  0  0  0
    5.3955   28.4209   42.1728 C   0  0  0  0  0  0  0  0  0  0  0  0
    6.1164   29.4426   41.2979 C   0  0  0  0  0  0  0  0  0  0  0  0
    7.2635   28.7578   40.5102 C   0  0  0  0  0  0  0  0  0  0  0  0
    8.1394   27.8991   41.3980 C   0  0  0  0  0  0  0  0  0  0  0  0
    9.5545   27.8937   41.3831 C   0  0  0  0  0  0  0  0  0  0  0  0
   10.2568   26.8429   42.0012 C   0  0  0  0  0  0  0  0  0  0  0  0
    9.5826   25.8457   42.6908 C   0  0  0  0  0  0  0  0  0  0  0  0
    8.1961   25.9618   42.8381 C   0  0  0  0  0  0  0  0  0  0  0  0
    7.4337   26.9630   42.2042 C   0  0  0  0  0  0  0  0  0  0  0  0
   11.6288   26.8364   41.9183 O   0  0  0  0  0  0  0  0  0  0  0  0
   11.8774   27.6317   41.4114 H   0  0  0  0  0  0  0  0  0  0  0  0
   10.1195   24.7500   43.3117 O   0  0  0  0  0  0  0  0  0  0  0  0
    9.2054   23.8572   43.9386 C   0  0  0  0  0  0  0  0  0  0  0  0
    5.5333   24.8960   43.0553 O   0  0  0  0  0  0  0  0  0  0  0  0
    5.2093   24.1489   41.8883 C   0  0  0  0  0  0  0  0  0  0  0  0
    3.0704   25.6284   44.2112 O   0  0  0  0  0  0  0  0  0  0  0  0
    2.0833   24.9862   43.4136 C   0  0  0  0  0  0  0  0  0  0  0  0
   10.4121   28.7789   40.7563 O   0  0  0  0  0  0  0  0  0  0  0  0
   10.4772   30.0977   41.1072 C   0  0  0  0  0  0  0  0  0  0  0  0
   10.9490   31.1286   40.3017 C   0  0  0  0  0  0  0  0  0  0  0  0
   11.3648   32.3109   40.9160 C   0  0  0  0  0  0  0  0  0  0  0  0
   11.2207   32.4915   42.3009 C   0  0  0  0  0  0  0  0  0  0  0  0
   10.4106   31.5935   42.9897 C   0  0  0  0  0  0  0  0  0  0  0  0
   10.0833   30.3739   42.4099 C   0  0  0  0  0  0  0  0  0  0  0  0
   12.0238   33.5850   42.9688 C   0  0  0  0  0  0  0  0  0  0  0  0
   13.5208   33.3859   43.4251 C   0  0  0  0  0  0  0  0  0  0  0  0
   13.6299   32.3432   44.5319 C   0  0  0  0  0  0  0  0  0  0  0  0
   12.8762   32.5193   45.7120 C   0  0  0  0  0  0  0  0  0  0  0  0
   12.8658   31.5525   46.7114 C   0  0  0  0  0  0  0  0  0  0  0  0
   13.6432   30.4077   46.5349 C   0  0  0  0  0  0  0  0  0  0  0  0
   14.4359   30.2323   45.4058 C   0  0  0  0  0  0  0  0  0  0  0  0
   14.4403   31.2054   44.3970 C   0  0  0  0  0  0  0  0  0  0  0  0
   15.3724   31.0619   43.2247 C   0  0  0  0  0  0  0  0  0  0  0  0
   15.0560   31.9846   42.0426 C   0  0  0  0  0  0  0  0  0  0  0  0
   14.6175   33.3264   42.4266 N   0  0  0  0  0  0  0  0  0  0  0  0
   14.3794   34.1441   41.2440 C   0  0  0  0  0  0  0  0  0  0  0  0
   13.6479   29.4280   47.4903 O   0  0  0  0  0  0  0  0  0  0  0  0
   13.0341   29.7504   48.1786 H   0  0  0  0  0  0  0  0  0  0  0  0
   12.1485   31.6136   47.8783 O   0  0  0  0  0  0  0  0  0  0  0  0
   12.0366   32.8991   48.4831 C   0  0  0  0  0  0  0  0  0  0  0  0
  1  2  1  0  0  0
  2  3  1  0  0  0
  3  4  1  0  0  0
  4  5  1  0  0  0
  5  6  2  0  0  0
  6  7  1  0  0  0
  7  8  2  0  0  0
  8  9  1  0  0  0
  9 10  2  0  0  0
  5 10  1  0  0  0
 10 11  1  0  0  0
  2 11  1  0  0  0
 11 12  1  0  0  0
 12 13  1  0  0  0
 13 14  2  0  0  0
 14 15  1  0  0  0
 15 16  2  0  0  0
 16 17  1  0  0  0
 17 18  2  0  0  0
 13 18  1  0  0  0
  9 18  1  0  0  0
 16 21  1  0  0  0
 21 22  1  0  0  0
 15 19  1  0  0  0
 14 27  1  0  0  0
 27 28  1  0  0  0
 28 29  2  0  0  0
 29 30  1  0  0  0
 30 31  2  0  0  0
 31 32  1  0  0  0
 32 33  2  0  0  0
 28 33  1  0  0  0
 31 34  1  0  0  0
 34 35  1  0  0  0
 35 36  1  0  0  0
 36 37  2  0  0  0
 37 38  1  0  0  0
 38 39  2  0  0  0
 39 40  1  0  0  0
 40 41  2  0  0  0
 36 41  1  0  0  0
 41 42  1  0  0  0
 42 43  1  0  0  0
 43 44  1  0  0  0
 35 44  1  0  0  0
 44 45  1  0  0  0
 39 46  1  0  0  0
 38 48  1  0  0  0
 48 49  1  0  0  0
  8 23  1  0  0  0
 23 24  1  0  0  0
  7 25  1  0  0  0
 25 26  1  0  0  0
 19 20  1  0  0  0
 46 47  1  0  0  0
M  END
> <minimizedAffinity>
-10.51852

$$$$
mol_4


 39 41  0  0  0  0  0  0  0  0999 V2000
   16.3181   29.0512   30.2624 O   0  0  0  0  0  0  0  0  0  0  0  0
   17.8370   28.8533   31.0085 P   0  0  0  0  0  0  0  0  0  0  0  0
   18.1830   27.3600   30.9824 O   0  0  0  0  0  0  0  0  0  0  0  0
   17.0016   28.5764   32.5557 N   0  0  0  0  0  0  0  0  0  0  0  0
   16.8962   27.6147   32.8596 H   0  0  0  0  0  0  0  0  0  0  0  0
   17.1323   29.6253   33.5652 C   0  0  0  0  0  0  0  0  0  0  0  0
   18.5836   29.9799   33.8515 C   0  0  0  0  0  0  0  0  0  0  0  0
   16.4315   29.2298   34.8658 C   0  0  0  0  0  0  0  0  0  0  0  0
   16.7894   28.3338   35.6187 O   0  0  0  0  0  0  0  0  0  0  0  0
   15.3600   30.0524   35.0675 O   0  0  0  0  0  0  0  0  0  0  0  0
   15.2973   32.4029   35.4471 C   0  0  0  0  0  0  0  0  0  0  0  0
   15.4801   31.0401   36.1090 C   0  0  0  0  0  0  0  0  0  0  0  0
   14.4105   30.8231   37.1733 C   0  0  0  0  0  0  0  0  0  0  0  0
   18.6489   29.1225   29.5048 O   0  0  0  0  0  0  0  0  0  0  0  0
   18.3167   28.3262   28.4379 C   0  0  0  0  0  0  0  0  0  0  0  0
   17.3783   28.7061   27.4796 C   0  0  0  0  0  0  0  0  0  0  0  0
   17.0111   27.8026   26.4804 C   0  0  0  0  0  0  0  0  0  0  0  0
   17.5931   26.5352   26.4333 C   0  0  0  0  0  0  0  0  0  0  0  0
   18.5576   26.1743   27.3741 C   0  0  0  0  0  0  0  0  0  0  0  0
   18.9255   27.0744   28.3739 C   0  0  0  0  0  0  0  0  0  0  0  0
   15.8281   30.3795   30.0161 C   0  0  0  0  0  0  0  0  0  0  0  0
   14.4362   30.7400   30.5520 C   0  0  0  0  0  0  0  0  0  0  0  0
   13.3803   29.8008   29.9384 C   0  0  0  0  0  0  0  0  0  0  0  0
   12.2656   29.8387   30.9646 C   0  0  0  0  0  0  0  0  0  0  0  0
   13.0705   29.8666   32.2740 C   0  0  0  0  0  0  0  0  0  0  0  0
   14.3409   30.5227   31.9903 O   0  0  0  0  0  0  0  0  0  0  0  0
   11.2641   28.7005   30.8570 C   0  0  0  0  0  0  0  0  0  0  0  0
   11.5890   31.0145   30.7947 F   0  0  0  0  0  0  0  0  0  0  0  0
   13.8571   28.4626   29.7383 O   0  0  0  0  0  0  0  0  0  0  0  0
   14.3068   28.1384   30.5399 H   0  0  0  0  0  0  0  0  0  0  0  0
   12.3890   30.5175   33.3934 N   0  0  0  0  0  0  0  0  0  0  0  0
   12.2159   31.8874   33.4048 C   0  0  0  0  0  0  0  0  0  0  0  0
   11.5621   32.5125   34.3864 C   0  0  0  0  0  0  0  0  0  0  0  0
   11.0193   31.7165   35.4952 C   0  0  0  0  0  0  0  0  0  0  0  0
   10.4342   32.2514   36.4337 O   0  0  0  0  0  0  0  0  0  0  0  0
   11.2042   30.3693   35.4048 N   0  0  0  0  0  0  0  0  0  0  0  0
   11.8508   29.7107   34.3892 C   0  0  0  0  0  0  0  0  0  0  0  0
   11.9204   28.4840   34.3909 O   0  0  0  0  0  0  0  0  0  0  0  0
   10.8232   29.8042   36.1477 H   0  0  0  0  0  0  0  0  0  0  0  0
 11 12  1  0  0  0
 12 13  1  0  0  0
 12 10  1  0  0  0
 10  8  1  0  0  0
  8  9  2  0  0  0
  8  6  1  0  0  0
  6  7  1  0  0  0
  6  4  1  0  0  0
  4  2  1  0  0  0
  2  3  2  0  0  0
  2  1  1  0  0  0
  1 21  1  0  0  0
 21 22  1  0  0  0
 22 23  1  0  0  0
 23 24  1  0  0  0
 24 25  1  0  0  0
 25 26  1  0  0  0
 22 26  1  0  0  0
 25 31  1  0  0  0
 31 32  1  0  0  0
 32 33  2  0  0  0
 33 34  1  0  0  0
 34 35  2  0  0  0
 34 36  1  0  0  0
 36 37  1  0  0  0
 31 37  1  0  0  0
 37 38  2  0  0  0
 24 27  1  0  0  0
 24 28  1  0  0  0
 23 29  1  0  0  0
  2 14  1  0  0  0
 14 15  1  0  0  0
 15 16  2  0  0  0
 16 17  1  0  0  0
 17 18  2  0  0  0
 18 19  1  0  0  0
 19 20  2  0  0  0
 15 20  1  0  0  0
  4  5  1  0  0  0
 36 39  1  0  0  0
 29 30  1  0  0  0
M  END
> <minimizedAffinity>
-9.12714

$$$$
