mol_0


 47 50  0  0  0  0  0  0  0  0999 V2000
   11.1637   30.3162   39.6693 C   0  0  0  0  0  0  0  0  0  0  0  0
   10.0372   29.8923   39.2022 N   0  0  0  0  0  0  0  0  0  0  0  0
    9.3083   30.3637   37.9699 C   0  0  0  0  0  0  0  0  0  0  0  0
    7.8703   29.8414   38.1623 C   0  0  0  0  0  0  0  0  0  0  0  0
    8.0948   28.6670   39.0758 C   0  0  0  0  0  0  0  0  0  0  0  0
    7.2494   27.5871   39.3538 C   0  0  0  0  0  0  0  0  0  0  0  0
    7.7743   26.5041   40.0691 C   0  0  0  0  0  0  0  0  0  0  0  0
    9.1325   26.5210   40.3882 C   0  0  0  0  0  0  0  0  0  0  0  0
    9.9214   27.6506   40.2812 C   0  0  0  0  0  0  0  0  0  0  0  0
    9.3781   28.7297   39.6226 C   0  0  0  0  0  0  0  0  0  0  0  0
    9.8041   25.3651   40.6518 O   0  0  0  0  0  0  0  0  0  0  0  0
    9.4660   24.7235   39.9959 H   0  0  0  0  0  0  0  0  0  0  0  0
   13.5521   31.7935   40.7387 C   0  0  0  0  0  0  0  0  0  0  0  0
   14.6447   32.5976   41.4769 C   0  0  0  0  0  0  0  0  0  0  0  0
   15.0868   31.9736   42.7459 N   0  0  0  0  0  0  0  0  0  0  0  0
   14.4533   30.8759   43.3116 C   0  0  0  0  0  0  0  0  0  0  0  0
   13.4029   30.2597   42.7523 C   0  0  0  0  0  0  0  0  0  0  0  0
   12.8482   30.6691   41.4736 C   0  0  0  0  0  0  0  0  0  0  0  0
   11.7496   30.0417   41.0112 C   0  0  0  0  0  0  0  0  0  0  0  0
   15.3443   32.6958   43.4330 H   0  0  0  0  0  0  0  0  0  0  0  0
   14.9319   30.3244   44.6312 C   0  0  0  0  0  0  0  0  0  0  0  0
   14.2144   29.8420   45.4953 O   0  0  0  0  0  0  0  0  0  0  0  0
   16.2767   30.3995   44.7236 O   0  0  0  0  0  0  0  0  0  0  0  0
   16.6562   30.6666   43.8628 H   0  0  0  0  0  0  0  0  0  0  0  0
   14.2600   34.0637   41.7616 C   0  0  0  0  0  0  0  0  0  0  0  0
   14.2634   34.5235   42.9004 O   0  0  0  0  0  0  0  0  0  0  0  0
   14.0338   34.8488   40.6896 O   0  0  0  0  0  0  0  0  0  0  0  0
   14.0489   34.4471   39.8001 H   0  0  0  0  0  0  0  0  0  0  0  0
    9.3697   31.8733   37.7611 C   0  0  0  0  0  0  0  0  0  0  0  0
   10.2129   32.2883   36.9181 O   0  0  0  0  0  0  0  0  0  0  0  0
    8.5119   32.5139   38.4221 O   0  0  0  0  0  0  0  0  0  0  0  0
    7.0757   25.3418   40.1788 O   0  0  0  0  0  0  0  0  0  0  0  0
    5.6329   25.3281   39.9536 C   0  0  0  0  0  0  0  0  0  0  0  0
    5.1884   23.9420   39.4153 C   0  0  0  0  0  0  0  0  0  0  0  0
    4.8050   22.9819   40.5466 C   0  0  0  0  0  0  0  0  0  0  0  0
    3.8097   23.6337   41.5087 C   0  0  0  0  0  0  0  0  0  0  0  0
    4.2429   25.0359   41.9704 C   0  0  0  0  0  0  0  0  0  0  0  0
    4.7358   25.8821   40.9214 O   0  0  0  0  0  0  0  0  0  0  0  0
    2.5290   23.6482   40.8523 O   0  0  0  0  0  0  0  0  0  0  0  0
    4.2292   21.7765   40.0165 O   0  0  0  0  0  0  0  0  0  0  0  0
    6.1865   23.3682   38.5588 O   0  0  0  0  0  0  0  0  0  0  0  0
    2.4869   24.4151   40.2520 H   0  0  0  0  0  0  0  0  0  0  0  0
    3.2584   21.9001   40.0373 H   0  0  0  0  0  0  0  0  0  0  0  0
    7.0210   23.3166   39.0542 H   0  0  0  0  0  0  0  0  0  0  0  0
    3.0730   25.7598   42.6776 C   0  0  0  0  0  0  0  0  0  0  0  0
    2.3394   24.8986   43.5475 O   0  0  0  0  0  0  0  0  0  0  0  0
    2.4327   23.9853   43.2356 H   0  0  0  0  0  0  0  0  0  0  0  0
 13 14  1  0  0  0
 14 15  1  0  0  0
 15 16  1  0  0  0
 16 17  2  0  0  0
 17 18  1  0  0  0
 13 18  1  0  0  0
 18 19  2  0  0  0
 19  1  1  0  0  0
  1  2  2  0  0  0
  2  3  1  0  0  0
  3  4  1  0  0  0
  4  5  1  0  0  0
  5  6  2  0  0  0
  6  7  1  0  0  0
  7  8  2  0  0  0
  8  9  1  0  0  0
  9 10  2  0  0  0
  5 10  1  0  0  0
  2 10  1  0  0  0
  8 11  1  0  0  0
  7 32  1  0  0  0
 32 33  1  0  0  0
 33 34  1  0  0  0
 34 35  1  0  0  0
 35 36  1  0  0  0
 36 37  1  0  0  0
 37 38  1  0  0  0
 33 38  1  0  0  0
 37 45  1  0  0  0
 45 46  1  0  0  0
 36 39  1  0  0  0
 35 40  1  0  0  0
 34 41  1  0  0  0
  3 29  1  0  0  0
 29 30  2  0  0  0
 29 31  1  0  0  0
 16 21  1  0  0  0
 21 22  2  0  0  0
 21 23  1  0  0  0
 14 25  1  0  0  0
 25 26  2  0  0  0
 25 27  1  0  0  0
 15 20  1  0  0  0
 11 12  1  0  0  0
 46 47  1  0  0  0
 39 42  1  0  0  0
 40 43  1  0  0  0
 41 44  1  0  0  0
 23 24  1  0  0  0
 27 28  1  0  0  0
M  CHG 1   2   1
M  CHG 1  31  -1
M  END
> <minimizedAffinity>
-10.89119

$$$$
mol_1


 53 59  0  0  0  0  0  0  0  0999 V2000
   11.9314   28.0248   30.7128 C   0  0  0  0  0  0  0  0  0  0  0  0
   12.1637   29.0182   29.6613 N   0  0  0  0  0  0  0  0  0  0  0  0
   12.2045   28.3303   28.3567 C   0  0  0  0  0  0  0  0  0  0  0  0
   13.1404   28.9650   27.3319 C   0  0  0  0  0  0  0  0  0  0  0  0
   14.5249   28.9827   27.9393 C   0  0  0  0  0  0  0  0  0  0  0  0
   14.6195   29.5031   29.2587 C   0  0  0  0  0  0  0  0  0  0  0  0
   13.3094   29.9608   29.8964 C   0  0  0  0  0  0  0  0  0  0  0  0
   13.4314   30.4184   31.3633 C   0  0  0  0  0  0  0  0  0  0  0  0
   14.7793   30.9415   31.8009 C   0  0  0  0  0  0  0  0  0  0  0  0
   14.8483   31.7093   32.9948 C   0  0  0  0  0  0  0  0  0  0  0  0
   16.0643   31.7787   33.6869 C   0  0  0  0  0  0  0  0  0  0  0  0
   17.2384   31.4437   33.0365 C   0  0  0  0  0  0  0  0  0  0  0  0
   17.1628   30.8348   31.7777 C   0  0  0  0  0  0  0  0  0  0  0  0
   15.9483   30.4627   31.1677 C   0  0  0  0  0  0  0  0  0  0  0  0
   15.8731   29.6648   29.8919 C   0  0  0  0  0  0  0  0  0  0  0  0
   16.9983   29.0892   29.2199 C   0  0  0  0  0  0  0  0  0  0  0  0
   16.9047   28.5349   27.9112 C   0  0  0  0  0  0  0  0  0  0  0  0
   15.6641   28.5328   27.2695 C   0  0  0  0  0  0  0  0  0  0  0  0
   15.5389   28.0680   25.9899 O   0  0  0  0  0  0  0  0  0  0  0  0
   16.1070   32.1041   35.0181 O   0  0  0  0  0  0  0  0  0  0  0  0
   14.7912   27.4495   25.9717 H   0  0  0  0  0  0  0  0  0  0  0  0
   15.1981   32.0574   35.3596 H   0  0  0  0  0  0  0  0  0  0  0  0
   18.0675   28.0186   27.3985 O   0  0  0  0  0  0  0  0  0  0  0  0
   18.2584   26.6169   27.3148 C   0  0  0  0  0  0  0  0  0  0  0  0
   18.1524   28.9247   29.9649 O   0  0  0  0  0  0  0  0  0  0  0  0
   18.2314   27.7529   30.7747 C   0  0  0  0  0  0  0  0  0  0  0  0
   18.5187   31.5993   33.5024 O   0  0  0  0  0  0  0  0  0  0  0  0
   19.3089   30.4197   33.5954 C   0  0  0  0  0  0  0  0  0  0  0  0
   13.6645   32.2865   33.4301 O   0  0  0  0  0  0  0  0  0  0  0  0
   12.8881   31.6791   34.4001 C   0  0  0  0  0  0  0  0  0  0  0  0
   13.0148   30.3604   34.8371 C   0  0  0  0  0  0  0  0  0  0  0  0
   11.9345   29.7350   35.4695 C   0  0  0  0  0  0  0  0  0  0  0  0
   10.7693   30.4523   35.7676 C   0  0  0  0  0  0  0  0  0  0  0  0
   10.8089   31.8425   35.6202 C   0  0  0  0  0  0  0  0  0  0  0  0
   11.8391   32.4481   34.8952 C   0  0  0  0  0  0  0  0  0  0  0  0
    9.5132   29.7172   36.1990 C   0  0  0  0  0  0  0  0  0  0  0  0
    9.0531   29.7833   37.7099 C   0  0  0  0  0  0  0  0  0  0  0  0
   10.2498   29.8625   38.6487 C   0  0  0  0  0  0  0  0  0  0  0  0
   11.0421   28.7209   38.8724 C   0  0  0  0  0  0  0  0  0  0  0  0
   12.2203   28.7792   39.6310 C   0  0  0  0  0  0  0  0  0  0  0  0
   12.6588   30.0215   40.1063 C   0  0  0  0  0  0  0  0  0  0  0  0
   11.8320   31.1465   39.9175 C   0  0  0  0  0  0  0  0  0  0  0  0
   10.6140   31.0801   39.2359 C   0  0  0  0  0  0  0  0  0  0  0  0
    9.7035   32.2791   39.1480 C   0  0  0  0  0  0  0  0  0  0  0  0
    8.4748   32.1106   38.2365 C   0  0  0  0  0  0  0  0  0  0  0  0
    7.9981   30.7309   38.1262 N   0  0  0  0  0  0  0  0  0  0  0  0
    6.7830   30.6437   37.3287 C   0  0  0  0  0  0  0  0  0  0  0  0
   12.2517   32.3666   40.3928 O   0  0  0  0  0  0  0  0  0  0  0  0
   13.1308   32.1898   40.7822 H   0  0  0  0  0  0  0  0  0  0  0  0
   13.8202   30.3231   40.7774 O   0  0  0  0  0  0  0  0  0  0  0  0
   13.8986   30.0147   42.1618 C   0  0  0  0  0  0  0  0  0  0  0  0
   12.9748   27.6583   39.8573 O   0  0  0  0  0  0  0  0  0  0  0  0
   12.5076   26.7983   40.8944 C   0  0  0  0  0  0  0  0  0  0  0  0
  1  2  1  0  0  0
  2  3  1  0  0  0
  3  4  1  0  0  0
  4  5  1  0  0  0
  5  6  2  0  0  0
  6  7  1  0  0  0
  2  7  1  0  0  0
  7  8  1  0  0  0
  8  9  1  0  0  0
  9 10  2  0  0  0
 10 11  1  0  0  0
 11 12  2  0  0  0
 12 13  1  0  0  0
 13 14  2  0  0  0
  9 14  1  0  0  0
 14 15  1  0  0  0
  6 15  1  0  0  0
 15 16  2  0  0  0
 16 17  1  0  0  0
 17 18  2  0  0  0
  5 18  1  0  0  0
 18 19  1  0  0  0
 17 23  1  0  0  0
 23 24  1  0  0  0
 16 25  1  0  0  0
 25 26  1  0  0  0
 12 27  1  0  0  0
 27 28  1  0  0  0
 11 20  1  0  0  0
 10 29  1  0  0  0
 29 30  1  0  0  0
 30 31  2  0  0  0
 31 32  1  0  0  0
 32 33  2  0  0  0
 33 34  1  0  0  0
 34 35  2  0  0  0
 30 35  1  0  0  0
 33 36  1  0  0  0
 36 37  1  0  0  0
 37 38  1  0  0  0
 38 39  2  0  0  0
 39 40  1  0  0  0
 40 41  2  0  0  0
 41 42  1  0  0  0
 42 43  2  0  0  0
 38 43  1  0  0  0
 43 44  1  0  0  0
 44 45  1  0  0  0
 45 46  1  0  0  0
 37 46  1  0  0  0
 46 47  1  0  0  0
 42 48  1  0  0  0
 41 50  1  0  0  0
 50 51  1  0  0  0
 40 52  1  0  0  0
 52 53  1  0  0  0
 19 21  1  0  0  0
 20 22  1  0  0  0
 48 49  1  0  0  0
M  END
> <minimizedAffinity>
-11.06563

$$$$
mol_2


 56 61  0  0  0  0  0  0  0  0999 V2000
    5.9488   28.4522   40.4771 C   0  0  0  0  0  0  0  0  0  0  0  0
    7.1808   27.9087   40.8251 C   0  0  0  0  0  0  0  0  0  0  0  0
    8.2879   28.0963   39.9928 C   0  0  0  0  0  0  0  0  0  0  0  0
    8.1062   28.6997   38.7300 C   0  0  0  0  0  0  0  0  0  0  0  0
    6.8773   29.2571   38.3671 C   0  0  0  0  0  0  0  0  0  0  0  0
    5.8180   29.1542   39.2661 C   0  0  0  0  0  0  0  0  0  0  0  0
    9.1609   28.8299   37.8581 O   0  0  0  0  0  0  0  0  0  0  0  0
    9.8217   28.1533   38.0848 H   0  0  0  0  0  0  0  0  0  0  0  0
    9.6092   28.0168   40.6177 C   0  0  0  0  0  0  0  0  0  0  0  0
   10.6441   27.1514   40.2554 C   0  0  0  0  0  0  0  0  0  0  0  0
   11.8428   27.1345   40.9886 C   0  0  0  0  0  0  0  0  0  0  0  0
   12.0185   28.0487   42.0380 C   0  0  0  0  0  0  0  0  0  0  0  0
   10.9997   28.9435   42.3966 C   0  0  0  0  0  0  0  0  0  0  0  0
    9.7867   28.8541   41.7317 C   0  0  0  0  0  0  0  0  0  0  0  0
   10.5093   26.2869   39.1990 O   0  0  0  0  0  0  0  0  0  0  0  0
    9.6474   26.4291   38.7757 H   0  0  0  0  0  0  0  0  0  0  0  0
   12.7787   26.2084   40.6040 O   0  0  0  0  0  0  0  0  0  0  0  0
   13.6661   25.7283   41.6048 C   0  0  0  0  0  0  0  0  0  0  0  0
   11.1895   29.9435   43.5007 C   0  0  0  0  0  0  0  0  0  0  0  0
   12.6185   30.3738   43.9002 C   0  0  0  0  0  0  0  0  0  0  0  0
   13.3824   31.5968   43.3557 C   0  0  0  0  0  0  0  0  0  0  0  0
   13.6864   32.4182   44.6113 C   0  0  0  0  0  0  0  0  0  0  0  0
   13.4492   31.5996   45.7472 O   0  0  0  0  0  0  0  0  0  0  0  0
   12.7421   30.4986   45.3994 C   0  0  0  0  0  0  0  0  0  0  0  0
   12.3095   29.6949   46.2112 O   0  0  0  0  0  0  0  0  0  0  0  0
   12.8643   32.5582   42.2727 C   0  0  0  0  0  0  0  0  0  0  0  0
   12.7799   32.1575   40.8248 C   0  0  0  0  0  0  0  0  0  0  0  0
   11.5057   32.0290   40.2453 C   0  0  0  0  0  0  0  0  0  0  0  0
   11.3176   31.5206   38.9486 C   0  0  0  0  0  0  0  0  0  0  0  0
   12.4345   31.0966   38.2133 C   0  0  0  0  0  0  0  0  0  0  0  0
   13.7061   31.2527   38.7815 C   0  0  0  0  0  0  0  0  0  0  0  0
   13.8761   31.8121   40.0503 C   0  0  0  0  0  0  0  0  0  0  0  0
   12.2441   30.5730   36.9633 O   0  0  0  0  0  0  0  0  0  0  0  0
   12.7922   29.2906   36.6876 C   0  0  0  0  0  0  0  0  0  0  0  0
    9.9962   31.5196   38.5831 O   0  0  0  0  0  0  0  0  0  0  0  0
    9.0679   32.2476   39.3714 C   0  0  0  0  0  0  0  0  0  0  0  0
    6.8283   29.9265   37.1724 O   0  0  0  0  0  0  0  0  0  0  0  0
    6.4154   31.2869   37.2118 C   0  0  0  0  0  0  0  0  0  0  0  0
    4.8239   28.4541   41.4710 C   0  0  0  0  0  0  0  0  0  0  0  0
    4.1489   26.4883   42.9644 C   0  0  0  0  0  0  0  0  0  0  0  0
    2.7889   25.8831   43.2438 C   0  0  0  0  0  0  0  0  0  0  0  0
    1.8557   26.5354   42.3912 O   0  0  0  0  0  0  0  0  0  0  0  0
    2.4918   27.2860   41.4476 C   0  0  0  0  0  0  0  0  0  0  0  0
    1.8819   27.8987   40.5933 O   0  0  0  0  0  0  0  0  0  0  0  0
    3.9925   27.1792   41.6026 C   0  0  0  0  0  0  0  0  0  0  0  0
    4.7243   27.2783   44.1684 C   0  0  0  0  0  0  0  0  0  0  0  0
    8.4342   26.1537   46.1576 C   0  0  0  0  0  0  0  0  0  0  0  0
    8.3140   26.1121   44.7639 C   0  0  0  0  0  0  0  0  0  0  0  0
    7.0948   26.4823   44.1682 C   0  0  0  0  0  0  0  0  0  0  0  0
    5.9721   26.8663   44.9245 C   0  0  0  0  0  0  0  0  0  0  0  0
    6.1156   26.8755   46.3099 C   0  0  0  0  0  0  0  0  0  0  0  0
    7.3337   26.5583   46.9162 C   0  0  0  0  0  0  0  0  0  0  0  0
    9.6677   24.6597   47.4909 C   0  0  0  0  0  0  0  0  0  0  0  0
    9.6369   25.8802   46.7538 O   0  0  0  0  0  0  0  0  0  0  0  0
    9.2698   25.7577   43.8474 O   0  0  0  0  0  0  0  0  0  0  0  0
    8.8343   25.0631   42.6866 C   0  0  0  0  0  0  0  0  0  0  0  0
 53 54  1  0  0  0
 54 47  1  0  0  0
 47 48  2  0  0  0
 48 49  1  0  0  0
 49 50  2  0  0  0
 50 51  1  0  0  0
 51 52  2  0  0  0
 47 52  1  0  0  0
 50 46  1  0  0  0
 46 40  1  0  0  0
 40 41  1  0  0  0
 41 42  1  0  0  0
 42 43  1  0  0  0
 43 44  2  0  0  0
 43 45  1  0  0  0
 40 45  1  0  0  0
 45 39  1  0  0  0
 39  1  1  0  0  0
  1  2  2  0  0  0
  2  3  1  0  0  0
  3  4  2  0  0  0
  4  5  1  0  0  0
  5  6  2  0  0  0
  1  6  1  0  0  0
  5 37  1  0  0  0
 37 38  1  0  0  0
  4  7  1  0  0  0
  3  9  1  0  0  0
  9 10  2  0  0  0
 10 11  1  0  0  0
 11 12  2  0  0  0
 12 13  1  0  0  0
 13 14  2  0  0  0
  9 14  1  0  0  0
 13 19  1  0  0  0
 19 20  1  0  0  0
 20 21  1  0  0  0
 21 22  1  0  0  0
 22 23  1  0  0  0
 23 24  1  0  0  0
 20 24  1  0  0  0
 24 25  2  0  0  0
 21 26  1  0  0  0
 26 27  1  0  0  0
 27 28  2  0  0  0
 28 29  1  0  0  0
 29 30  2  0  0  0
 30 31  1  0  0  0
 31 32  2  0  0  0
 27 32  1  0  0  0
 30 33  1  0  0  0
 33 34  1  0  0  0
 29 35  1  0  0  0
 35 36  1  0  0  0
 11 17  1  0  0  0
 17 18  1  0  0  0
 10 15  1  0  0  0
 48 55  1  0  0  0
 55 56  1  0  0  0
  7  8  1  0  0  0
 15 16  1  0  0  0
M  END
> <minimizedAffinity>
-9.47066

$$$$
mol_3


 49 55  0  0  0  0  0  0  0  0999 V2000
   17.0705   28.6037   35.2731 C   0  0  0  0  0  0  0  0  0  0  0  0
   17.4322   29.9769   34.9220 N   0  0  0  0  0  0  0  0  0  0  0  0
   18.6354   29.9437   34.0600 C   0  0  0  0  0  0  0  0  0  0  0  0
   18.6983   31.0038   32.9627 C   0  0  0  0  0  0  0  0  0  0  0  0
   17.4271   30.9098   32.1646 C   0  0  0  0  0  0  0  0  0  0  0  0
   17.4276   30.8698   30.7753 C   0  0  0  0  0  0  0  0  0  0  0  0
   16.2262   30.6998   30.0864 C   0  0  0  0  0  0  0  0  0  0  0  0
   14.9989   30.7412   30.7958 C   0  0  0  0  0  0  0  0  0  0  0  0
   14.9736   30.9278   32.2064 C   0  0  0  0  0  0  0  0  0  0  0  0
   16.2168   30.8593   32.8795 C   0  0  0  0  0  0  0  0  0  0  0  0
   16.3056   30.8185   34.4025 C   0  0  0  0  0  0  0  0  0  0  0  0
   14.9226   30.4672   35.0099 C   0  0  0  0  0  0  0  0  0  0  0  0
   13.8066   31.3076   34.4260 C   0  0  0  0  0  0  0  0  0  0  0  0
   12.7900   31.9440   35.1772 C   0  0  0  0  0  0  0  0  0  0  0  0
   11.6344   32.4183   34.5297 C   0  0  0  0  0  0  0  0  0  0  0  0
   11.5077   32.3367   33.1507 C   0  0  0  0  0  0  0  0  0  0  0  0
   12.5955   31.8597   32.4113 C   0  0  0  0  0  0  0  0  0  0  0  0
   13.7580   31.3280   33.0043 C   0  0  0  0  0  0  0  0  0  0  0  0
   10.6399   32.9787   35.2955 O   0  0  0  0  0  0  0  0  0  0  0  0
   10.9525   32.9463   36.2187 H   0  0  0  0  0  0  0  0  0  0  0  0
   10.4396   32.7220   32.3857 O   0  0  0  0  0  0  0  0  0  0  0  0
   10.6934   32.9610   31.0058 C   0  0  0  0  0  0  0  0  0  0  0  0
   13.7880   30.4529   30.2040 O   0  0  0  0  0  0  0  0  0  0  0  0
   13.4291   29.0805   30.0918 C   0  0  0  0  0  0  0  0  0  0  0  0
   16.1867   30.5179   28.7273 O   0  0  0  0  0  0  0  0  0  0  0  0
   16.6381   29.2666   28.2238 C   0  0  0  0  0  0  0  0  0  0  0  0
   12.7156   32.1236   36.5462 O   0  0  0  0  0  0  0  0  0  0  0  0
   12.1433   31.1957   37.3697 C   0  0  0  0  0  0  0  0  0  0  0  0
   11.1171   31.4395   38.2762 C   0  0  0  0  0  0  0  0  0  0  0  0
   10.9400   30.5435   39.3315 C   0  0  0  0  0  0  0  0  0  0  0  0
   11.7142   29.3757   39.4218 C   0  0  0  0  0  0  0  0  0  0  0  0
   12.4518   29.0003   38.3027 C   0  0  0  0  0  0  0  0  0  0  0  0
   12.7087   29.9292   37.3018 C   0  0  0  0  0  0  0  0  0  0  0  0
   11.7728   28.6550   40.7500 C   0  0  0  0  0  0  0  0  0  0  0  0
   11.7562   29.4139   42.1330 C   0  0  0  0  0  0  0  0  0  0  0  0
   12.7539   30.5664   42.1462 C   0  0  0  0  0  0  0  0  0  0  0  0
   14.1091   30.2990   41.8573 C   0  0  0  0  0  0  0  0  0  0  0  0
   15.0420   31.3259   41.7629 C   0  0  0  0  0  0  0  0  0  0  0  0
   14.6133   32.6343   41.9880 C   0  0  0  0  0  0  0  0  0  0  0  0
   13.2950   32.9211   42.3255 C   0  0  0  0  0  0  0  0  0  0  0  0
   12.3552   31.8850   42.4144 C   0  0  0  0  0  0  0  0  0  0  0  0
   10.9548   32.1843   42.8761 C   0  0  0  0  0  0  0  0  0  0  0  0
    9.9442   31.0623   42.6142 C   0  0  0  0  0  0  0  0  0  0  0  0
   10.4745   29.7143   42.8189 N   0  0  0  0  0  0  0  0  0  0  0  0
    9.4375   28.7167   42.5881 C   0  0  0  0  0  0  0  0  0  0  0  0
   15.4993   33.6725   41.8904 O   0  0  0  0  0  0  0  0  0  0  0  0
   16.3472   33.2525   41.6473 H   0  0  0  0  0  0  0  0  0  0  0  0
   16.3710   31.1763   41.4608 O   0  0  0  0  0  0  0  0  0  0  0  0
   17.0484   30.1040   42.1104 C   0  0  0  0  0  0  0  0  0  0  0  0
  1  2  1  0  0  0
  2  3  1  0  0  0
  3  4  1  0  0  0
  4  5  1  0  0  0
  5  6  2  0  0  0
  6  7  1  0  0  0
  7  8  2  0  0  0
  8  9  1  0  0  0
  9 10  2  0  0  0
  5 10  1  0  0  0
 10 11  1  0  0  0
  2 11  1  0  0  0
 11 12  1  0  0  0
 12 13  1  0  0  0
 13 14  2  0  0  0
 14 15  1  0  0  0
 15 16  2  0  0  0
 16 17  1  0  0  0
 17 18  2  0  0  0
 13 18  1  0  0  0
  9 18  1  0  0  0
 16 21  1  0  0  0
 21 22  1  0  0  0
 15 19  1  0  0  0
 14 27  1  0  0  0
 27 28  1  0  0  0
 28 29  2  0  0  0
 29 30  1  0  0  0
 30 31  2  0  0  0
 31 32  1  0  0  0
 32 33  2  0  0  0
 28 33  1  0  0  0
 31 34  1  0  0  0
 34 35  1  0  0  0
 35 36  1  0  0  0
 36 37  2  0  0  0
 37 38  1  0  0  0
 38 39  2  0  0  0
 39 40  1  0  0  0
 40 41  2  0  0  0
 36 41  1  0  0  0
 41 42  1  0  0  0
 42 43  1  0  0  0
 43 44  1  0  0  0
 35 44  1  0  0  0
 44 45  1  0  0  0
 39 46  1  0  0  0
 38 48  1  0  0  0
 48 49  1  0  0  0
  8 23  1  0  0  0
 23 24  1  0  0  0
  7 25  1  0  0  0
 25 26  1  0  0  0
 19 20  1  0  0  0
 46 47  1  0  0  0
M  END
> <minimizedAffinity>
-10.52701

$$$$
mol_4


 39 41  0  0  0  0  0  0  0  0999 V2000
   12.3485   31.0064   36.7102 O   0  0  0  0  0  0  0  0  0  0  0  0
   13.2103   30.0241   35.6169 P   0  0  0  0  0  0  0  0  0  0  0  0
   12.9289   28.5606   35.9766 O   0  0  0  0  0  0  0  0  0  0  0  0
   14.5654   29.9897   36.7707 N   0  0  0  0  0  0  0  0  0  0  0  0
   14.6079   29.2052   37.4120 H   0  0  0  0  0  0  0  0  0  0  0  0
   15.8135   30.6100   36.3306 C   0  0  0  0  0  0  0  0  0  0  0  0
   15.5826   31.9093   35.5739 C   0  0  0  0  0  0  0  0  0  0  0  0
   16.6330   29.6491   35.4679 C   0  0  0  0  0  0  0  0  0  0  0  0
   16.6960   28.4367   35.6228 O   0  0  0  0  0  0  0  0  0  0  0  0
   17.2610   30.3546   34.4812 O   0  0  0  0  0  0  0  0  0  0  0  0
   18.3992   30.1181   32.4024 C   0  0  0  0  0  0  0  0  0  0  0  0
   18.4238   29.7503   33.8833 C   0  0  0  0  0  0  0  0  0  0  0  0
   19.6943   30.2811   34.5374 C   0  0  0  0  0  0  0  0  0  0  0  0
   11.8934   30.0577   34.4956 O   0  0  0  0  0  0  0  0  0  0  0  0
   12.1075   30.6193   33.2621 C   0  0  0  0  0  0  0  0  0  0  0  0
   12.2709   31.9915   33.0788 C   0  0  0  0  0  0  0  0  0  0  0  0
   12.3789   32.5045   31.7847 C   0  0  0  0  0  0  0  0  0  0  0  0
   12.3403   31.6462   30.6851 C   0  0  0  0  0  0  0  0  0  0  0  0
   12.2123   30.2706   30.8772 C   0  0  0  0  0  0  0  0  0  0  0  0
   12.1033   29.7555   32.1686 C   0  0  0  0  0  0  0  0  0  0  0  0
   11.2888   30.4244   37.4871 C   0  0  0  0  0  0  0  0  0  0  0  0
   11.3432   30.5923   39.0113 C   0  0  0  0  0  0  0  0  0  0  0  0
   11.7904   29.2719   39.6672 C   0  0  0  0  0  0  0  0  0  0  0  0
   12.3819   29.7380   40.9824 C   0  0  0  0  0  0  0  0  0  0  0  0
   13.0872   31.0326   40.5467 C   0  0  0  0  0  0  0  0  0  0  0  0
   12.3498   31.5686   39.4093 O   0  0  0  0  0  0  0  0  0  0  0  0
   13.2810   28.7233   41.6697 C   0  0  0  0  0  0  0  0  0  0  0  0
   11.3425   30.0206   41.8245 F   0  0  0  0  0  0  0  0  0  0  0  0
   12.7560   28.5495   38.8901 O   0  0  0  0  0  0  0  0  0  0  0  0
   13.4683   29.1450   38.5937 H   0  0  0  0  0  0  0  0  0  0  0  0
   13.2179   32.0388   41.6011 N   0  0  0  0  0  0  0  0  0  0  0  0
   12.0997   32.6760   42.1013 C   0  0  0  0  0  0  0  0  0  0  0  0
   12.1739   33.5674   43.0921 C   0  0  0  0  0  0  0  0  0  0  0  0
   13.4902   33.8874   43.6602 C   0  0  0  0  0  0  0  0  0  0  0  0
   13.6098   34.7211   44.5544 O   0  0  0  0  0  0  0  0  0  0  0  0
   14.5451   33.2017   43.1365 N   0  0  0  0  0  0  0  0  0  0  0  0
   14.4807   32.2639   42.1367 C   0  0  0  0  0  0  0  0  0  0  0  0
   15.4957   31.6754   41.7720 O   0  0  0  0  0  0  0  0  0  0  0  0
   15.4549   33.3947   43.5257 H   0  0  0  0  0  0  0  0  0  0  0  0
 11 12  1  0  0  0
 12 13  1  0  0  0
 12 10  1  0  0  0
 10  8  1  0  0  0
  8  9  2  0  0  0
  8  6  1  0  0  0
  6  7  1  0  0  0
  6  4  1  0  0  0
  4  2  1  0  0  0
  2  3  2  0  0  0
  2  1  1  0  0  0
  1 21  1  0  0  0
 21 22  1  0  0  0
 22 23  1  0  0  0
 23 24  1  0  0  0
 24 25  1  0  0  0
 25 26  1  0  0  0
 22 26  1  0  0  0
 25 31  1  0  0  0
 31 32  1  0  0  0
 32 33  2  0  0  0
 33 34  1  0  0  0
 34 35  2  0  0  0
 34 36  1  0  0  0
 36 37  1  0  0  0
 31 37  1  0  0  0
 37 38  2  0  0  0
 24 27  1  0  0  0
 24 28  1  0  0  0
 23 29  1  0  0  0
  2 14  1  0  0  0
 14 15  1  0  0  0
 15 16  2  0  0  0
 16 17  1  0  0  0
 17 18  2  0  0  0
 18 19  1  0  0  0
 19 20  2  0  0  0
 15 20  1  0  0  0
  4  5  1  0  0  0
 36 39  1  0  0  0
 29 30  1  0  0  0
M  END
> <minimizedAffinity>
-8.62330

$$$$
