mol_0


 47 50  0  0  0  0  0  0  0  0999 V2000
   12.2674   32.5724   39.5884 C   0  0  0  0  0  0  0  0  0  0  0  0
   11.8491   32.2534   38.4094 N   0  0  0  0  0  0  0  0  0  0  0  0
   10.4445   32.3401   37.8691 C   0  0  0  0  0  0  0  0  0  0  0  0
   10.4669   31.4358   36.6204 C   0  0  0  0  0  0  0  0  0  0  0  0
   11.9243   31.4702   36.2481 C   0  0  0  0  0  0  0  0  0  0  0  0
   12.5370   31.1311   35.0366 C   0  0  0  0  0  0  0  0  0  0  0  0
   13.8871   31.4594   34.8642 C   0  0  0  0  0  0  0  0  0  0  0  0
   14.5231   32.1843   35.8726 C   0  0  0  0  0  0  0  0  0  0  0  0
   13.9853   32.3595   37.1335 C   0  0  0  0  0  0  0  0  0  0  0  0
   12.6729   31.9849   37.3085 C   0  0  0  0  0  0  0  0  0  0  0  0
   15.6381   32.9213   35.6080 O   0  0  0  0  0  0  0  0  0  0  0  0
   15.4611   33.3423   34.7434 H   0  0  0  0  0  0  0  0  0  0  0  0
   12.6426   30.3116   41.5322 C   0  0  0  0  0  0  0  0  0  0  0  0
   13.0079   29.0778   42.3866 C   0  0  0  0  0  0  0  0  0  0  0  0
   14.3786   29.1275   42.9467 N   0  0  0  0  0  0  0  0  0  0  0  0
   15.3091   30.0929   42.5886 C   0  0  0  0  0  0  0  0  0  0  0  0
   15.0493   31.0859   41.7271 C   0  0  0  0  0  0  0  0  0  0  0  0
   13.7462   31.2621   41.1096 C   0  0  0  0  0  0  0  0  0  0  0  0
   13.5845   32.2446   40.2025 C   0  0  0  0  0  0  0  0  0  0  0  0
   14.7767   28.1802   43.0114 H   0  0  0  0  0  0  0  0  0  0  0  0
   16.7018   30.0510   43.1659 C   0  0  0  0  0  0  0  0  0  0  0  0
   17.7317   29.9513   42.5152 O   0  0  0  0  0  0  0  0  0  0  0  0
   16.6684   30.1752   44.5098 O   0  0  0  0  0  0  0  0  0  0  0  0
   15.7633   30.4027   44.8019 H   0  0  0  0  0  0  0  0  0  0  0  0
   12.8277   27.7325   41.6546 C   0  0  0  0  0  0  0  0  0  0  0  0
   11.7235   27.3382   41.2890 O   0  0  0  0  0  0  0  0  0  0  0  0
   13.9528   27.0648   41.3304 O   0  0  0  0  0  0  0  0  0  0  0  0
   14.8122   27.4158   41.6321 H   0  0  0  0  0  0  0  0  0  0  0  0
    9.3738   31.9357   38.8773 C   0  0  0  0  0  0  0  0  0  0  0  0
    8.7613   32.8781   39.4522 O   0  0  0  0  0  0  0  0  0  0  0  0
    9.1943   30.6930   38.9581 O   0  0  0  0  0  0  0  0  0  0  0  0
   14.4749   31.3568   33.6415 O   0  0  0  0  0  0  0  0  0  0  0  0
   15.3923   30.2565   33.3578 C   0  0  0  0  0  0  0  0  0  0  0  0
   15.7404   30.2262   31.8457 C   0  0  0  0  0  0  0  0  0  0  0  0
   16.9839   31.0625   31.5252 C   0  0  0  0  0  0  0  0  0  0  0  0
   18.1478   30.6951   32.4478 C   0  0  0  0  0  0  0  0  0  0  0  0
   17.7555   30.6646   33.9352 C   0  0  0  0  0  0  0  0  0  0  0  0
   16.5135   30.0003   34.2097 O   0  0  0  0  0  0  0  0  0  0  0  0
   18.6677   29.4314   31.9960 O   0  0  0  0  0  0  0  0  0  0  0  0
   17.3860   30.8716   30.1587 O   0  0  0  0  0  0  0  0  0  0  0  0
   14.6205   30.6260   31.0425 O   0  0  0  0  0  0  0  0  0  0  0  0
   18.1203   28.7123   32.3613 H   0  0  0  0  0  0  0  0  0  0  0  0
   18.0771   30.1785   30.1670 H   0  0  0  0  0  0  0  0  0  0  0  0
   14.3353   31.5083   31.3336 H   0  0  0  0  0  0  0  0  0  0  0  0
   18.8678   29.9949   34.7761 C   0  0  0  0  0  0  0  0  0  0  0  0
   20.1382   30.6227   34.6066 O   0  0  0  0  0  0  0  0  0  0  0  0
   20.1624   31.0505   33.7369 H   0  0  0  0  0  0  0  0  0  0  0  0
 13 14  1  0  0  0
 14 15  1  0  0  0
 15 16  1  0  0  0
 16 17  2  0  0  0
 17 18  1  0  0  0
 13 18  1  0  0  0
 18 19  2  0  0  0
 19  1  1  0  0  0
  1  2  2  0  0  0
  2  3  1  0  0  0
  3  4  1  0  0  0
  4  5  1  0  0  0
  5  6  2  0  0  0
  6  7  1  0  0  0
  7  8  2  0  0  0
  8  9  1  0  0  0
  9 10  2  0  0  0
  5 10  1  0  0  0
  2 10  1  0  0  0
  8 11  1  0  0  0
  7 32  1  0  0  0
 32 33  1  0  0  0
 33 34  1  0  0  0
 34 35  1  0  0  0
 35 36  1  0  0  0
 36 37  1  0  0  0
 37 38  1  0  0  0
 33 38  1  0  0  0
 37 45  1  0  0  0
 45 46  1  0  0  0
 36 39  1  0  0  0
 35 40  1  0  0  0
 34 41  1  0  0  0
  3 29  1  0  0  0
 29 30  2  0  0  0
 29 31  1  0  0  0
 16 21  1  0  0  0
 21 22  2  0  0  0
 21 23  1  0  0  0
 14 25  1  0  0  0
 25 26  2  0  0  0
 25 27  1  0  0  0
 15 20  1  0  0  0
 11 12  1  0  0  0
 46 47  1  0  0  0
 39 42  1  0  0  0
 40 43  1  0  0  0
 41 44  1  0  0  0
 23 24  1  0  0  0
 27 28  1  0  0  0
M  CHG 1   2   1
M  CHG 1  31  -1
M  END
> <minimizedAffinity>
-10.69285

$$$$
mol_1


 39 41  0  0  0  0  0  0  0  0999 V2000
   16.1404   28.9249   29.7763 O   0  0  0  0  0  0  0  0  0  0  0  0
   17.6003   28.7228   30.4331 P   0  0  0  0  0  0  0  0  0  0  0  0
   18.1219   27.3324   30.2292 O   0  0  0  0  0  0  0  0  0  0  0  0
   17.5548   29.2291   31.9907 N   0  0  0  0  0  0  0  0  0  0  0  0
   16.6000   29.1945   32.3425 H   0  0  0  0  0  0  0  0  0  0  0  0
   18.1332   30.5198   32.3850 C   0  0  0  0  0  0  0  0  0  0  0  0
   19.2005   30.3312   33.4588 C   0  0  0  0  0  0  0  0  0  0  0  0
   17.0309   31.4172   32.9859 C   0  0  0  0  0  0  0  0  0  0  0  0
   16.4173   32.2903   32.3926 O   0  0  0  0  0  0  0  0  0  0  0  0
   16.8379   31.0602   34.2864 O   0  0  0  0  0  0  0  0  0  0  0  0
   15.7831   29.2193   35.3148 C   0  0  0  0  0  0  0  0  0  0  0  0
   15.5421   30.5882   34.6842 C   0  0  0  0  0  0  0  0  0  0  0  0
   14.9528   31.5626   35.6885 C   0  0  0  0  0  0  0  0  0  0  0  0
   18.5354   29.8395   29.7527 O   0  0  0  0  0  0  0  0  0  0  0  0
   18.8577   30.0524   28.4490 C   0  0  0  0  0  0  0  0  0  0  0  0
   19.4994   31.2722   28.2087 C   0  0  0  0  0  0  0  0  0  0  0  0
   19.8209   31.6653   26.9111 C   0  0  0  0  0  0  0  0  0  0  0  0
   19.5144   30.8267   25.8443 C   0  0  0  0  0  0  0  0  0  0  0  0
   18.9112   29.5895   26.0845 C   0  0  0  0  0  0  0  0  0  0  0  0
   18.5894   29.1944   27.3901 C   0  0  0  0  0  0  0  0  0  0  0  0
   15.4986   30.1773   29.6773 C   0  0  0  0  0  0  0  0  0  0  0  0
   14.0415   30.2127   30.1759 C   0  0  0  0  0  0  0  0  0  0  0  0
   12.9867   29.1942   29.7213 C   0  0  0  0  0  0  0  0  0  0  0  0
   11.9370   29.3542   30.8249 C   0  0  0  0  0  0  0  0  0  0  0  0
   12.8177   29.5543   32.0686 C   0  0  0  0  0  0  0  0  0  0  0  0
   14.0414   30.1794   31.6247 O   0  0  0  0  0  0  0  0  0  0  0  0
   10.9361   28.2212   30.9623 C   0  0  0  0  0  0  0  0  0  0  0  0
   11.2392   30.5027   30.5607 F   0  0  0  0  0  0  0  0  0  0  0  0
   13.4240   27.8500   29.5843 O   0  0  0  0  0  0  0  0  0  0  0  0
   13.8731   27.5351   30.3842 H   0  0  0  0  0  0  0  0  0  0  0  0
   12.2296   30.3366   33.1553 N   0  0  0  0  0  0  0  0  0  0  0  0
   12.0326   31.6987   33.0250 C   0  0  0  0  0  0  0  0  0  0  0  0
   11.5274   32.4407   34.0129 C   0  0  0  0  0  0  0  0  0  0  0  0
   11.1668   31.7866   35.2793 C   0  0  0  0  0  0  0  0  0  0  0  0
   10.7311   32.4319   36.2248 O   0  0  0  0  0  0  0  0  0  0  0  0
   11.3509   30.4355   35.3196 N   0  0  0  0  0  0  0  0  0  0  0  0
   11.8635   29.6608   34.3118 C   0  0  0  0  0  0  0  0  0  0  0  0
   11.9821   28.4462   34.4603 O   0  0  0  0  0  0  0  0  0  0  0  0
   11.0975   29.9649   36.1742 H   0  0  0  0  0  0  0  0  0  0  0  0
 11 12  1  0  0  0
 12 13  1  0  0  0
 12 10  1  0  0  0
 10  8  1  0  0  0
  8  9  2  0  0  0
  8  6  1  0  0  0
  6  7  1  0  0  0
  6  4  1  0  0  0
  4  2  1  0  0  0
  2  3  2  0  0  0
  2  1  1  0  0  0
  1 21  1  0  0  0
 21 22  1  0  0  0
 22 23  1  0  0  0
 23 24  1  0  0  0
 24 25  1  0  0  0
 25 26  1  0  0  0
 22 26  1  0  0  0
 25 31  1  0  0  0
 31 32  1  0  0  0
 32 33  2  0  0  0
 33 34  1  0  0  0
 34 35  2  0  0  0
 34 36  1  0  0  0
 36 37  1  0  0  0
 31 37  1  0  0  0
 37 38  2  0  0  0
 24 27  1  0  0  0
 24 28  1  0  0  0
 23 29  1  0  0  0
  2 14  1  0  0  0
 14 15  1  0  0  0
 15 16  2  0  0  0
 16 17  1  0  0  0
 17 18  2  0  0  0
 18 19  1  0  0  0
 19 20  2  0  0  0
 15 20  1  0  0  0
  4  5  1  0  0  0
 36 39  1  0  0  0
 29 30  1  0  0  0
M  END
> <minimizedAffinity>
-8.22625

$$$$
